
**** 05/18/23 15:21:05 **** PSpice 22.1.0 (6 October 2022) **** ID# 0 ********

 ** Profile: "SCHEMATIC1-test"  [ E:\Tehnici CAD\proiect\proiectcad_sabauradubogdan-pspicefiles\schematic1\test.sim ] 


 ****     CIRCUIT DESCRIPTION


******************************************************************************




** Creating circuit file "test.cir" 
** WARNING: THIS AUTOMATICALLY GENERATED FILE MAY BE OVERWRITTEN BY SUBSEQUENT SIMULATIONS

*Libraries: 
* Profile Libraries :
* Local Libraries :
.LIB "../../../ledorange.lib" 
* From [PSPICE NETLIST] section of E:\CAD\cdssetup\OrCAD_PSpice\22.1.0\PSpice.ini file:
.lib "nom.lib" 

*Analysis directives: 
.TRAN  0 1000ns 0 
.STEP LIN PARAM R 22k 32k 2k 
.OPTIONS ADVCONV
.PROBE64 V(alias(*)) I(alias(*)) W(alias(*)) D(alias(*)) NOISE(alias(*)) 
.INC "..\SCHEMATIC1.net" 



**** INCLUDING SCHEMATIC1.net ****
* source PROIECTCAD_SABAURADUBOGDAN
X_U1         N01288 N00401 VCC -VCC N01182 uA741
V_VCC         VCC 0 12V
V_-VCC         -VCC 0 -12V
R_R1         N05088 N01182  1k TC=0,0 
R_R2         N01168 VCC  1028 TC=0,0 
X_U3         N09213 N00482 V+ V- N00401 uA741
X_U4         N01426 N01288 V+ V- N01288 uA741
X_U5         N00763 N00365 V+ V- N00365 uA741
R_R3         N00482 N00401  6.65k TC=0,0 
R_R4         N09209 N00482  1k TC=0,0 
R_Rs         0 N00763  {R} TC=0,0 
R_R11         N01426 VCC  6.98k TC=0,0 
R_R12         0 N01426  4.99k TC=0,0 
Q_Q6         N00763 N03994 N04234 Q2N2604
Q_Q7         N03994 N03994 N04230 Q2N2604
R_R13         0 N03994  78.7k TC=0,0 
R_R14         N04230 VCC  1k TC=0,0 
R_R15         N04234 VCC  1k TC=0,0 
D_D1          N05088 0 LedOrange 
R_R16         N01182 N13651  200 TC=0,0 
R_R17         N00365 N09213  1k TC=0,0 
R_R18         0 N09213  6.65k TC=0,0 
X_U6         N09549 N09209 V+ V- N09209 uA741
R_R19         VCC N09549  9.76k TC=0,0 
R_R20         0 N09549  3.32k TC=0,0 
Q_Q8         0 N13651 N01168 Q2N2604
.PARAM  r=22k

**** RESUMING test.cir ****
.END

**** 05/18/23 15:21:05 **** PSpice 22.1.0 (6 October 2022) **** ID# 0 ********

 ** Profile: "SCHEMATIC1-test"  [ E:\Tehnici CAD\proiect\proiectcad_sabauradubogdan-pspicefiles\schematic1\test.sim ] 


 ****     Diode MODEL PARAMETERS


******************************************************************************




               LedOrange       X_U1.dx         X_U1.dy         X_U3.dx         
          IS  432.450000E-15  800.000000E-18  800.000000E-18  800.000000E-18 
           N    2.4853                                                       
         ISR    5.071700E-06                                                 
         IKF   18.180000E-06                                                 
          BV  100                                                            
         IBV  100.000000E-06                                                 
          RS    2.9766          1               1.000000E-03    1            
          TT    5.000000E-09                                                 
         CJO    1.000000E-12                   10.000000E-12                 
          VJ     .75                                                         
           M     .3333                                                       


               X_U3.dy         X_U4.dx         X_U4.dy         X_U5.dx         
          IS  800.000000E-18  800.000000E-18  800.000000E-18  800.000000E-18 
          RS    1.000000E-03    1               1.000000E-03    1            
         CJO   10.000000E-12                   10.000000E-12                 


               X_U5.dy         X_U6.dx         X_U6.dy         
          IS  800.000000E-18  800.000000E-18  800.000000E-18 
          RS    1.000000E-03    1               1.000000E-03 
         CJO   10.000000E-12                   10.000000E-12 


**** 05/18/23 15:21:05 **** PSpice 22.1.0 (6 October 2022) **** ID# 0 ********

 ** Profile: "SCHEMATIC1-test"  [ E:\Tehnici CAD\proiect\proiectcad_sabauradubogdan-pspicefiles\schematic1\test.sim ] 


 ****     BJT MODEL PARAMETERS


******************************************************************************




               Q2N2604         X_U1.qx         X_U3.qx         X_U4.qx         
               PNP             NPN             NPN             NPN             
       LEVEL    1               1               1               1            
          IS    6.734000E-15  800.000000E-18  800.000000E-18  800.000000E-18 
          BF   66.17           93.75           93.75           93.75         
          NF    1               1               1               1            
         VAF   45.7                                                          
         IKF     .1614                                                       
         ISE    6.734000E-15                                                 
          NE    1.555                                                        
          BR    3.149           1               1               1            
          NR    1               1               1               1            
         ISS    0               0               0               0            
          RB   10                                                            
          RE    0               0               0               0            
          RC    1.67            0               0               0            
         CJE    7.500000E-12    0               0               0            
         VJE     .75             .75             .75             .75         
         MJE     .2861                                                       
         CJC    6.200000E-12    0               0               0            
         VJC     .75             .75             .75             .75         
         MJC     .301            .33             .33             .33         
        XCJC    1               1               1               1            
         CJS    0               0               0               0            
         VJS     .75             .75             .75             .75         
          TF  466.900000E-12                                                 
         XTF    8                                                            
         VTF    5                                                            
         ITF     .17                                                         
          TR   12.620000E-09                                                 
         XTB    1.5                                                          
          KF    0               0               0               0            
          AF    1               1               1               1            
          CN    2.2             2.42            2.42            2.42         
           D     .52             .87             .87             .87         


               X_U5.qx         X_U6.qx         
               NPN             NPN             
       LEVEL    1               1            
          IS  800.000000E-18  800.000000E-18 
          BF   93.75           93.75         
          NF    1               1            
          BR    1               1            
          NR    1               1            
         ISS    0               0            
          RE    0               0            
          RC    0               0            
         CJE    0               0            
         VJE     .75             .75         
         CJC    0               0            
         VJC     .75             .75         
         MJC     .33             .33         
        XCJC    1               1            
         CJS    0               0            
         VJS     .75             .75         
          KF    0               0            
          AF    1               1            
          CN    2.42            2.42         
           D     .87             .87         


**** 05/18/23 15:21:05 **** PSpice 22.1.0 (6 October 2022) **** ID# 0 ********

 ** Profile: "SCHEMATIC1-test"  [ E:\Tehnici CAD\proiect\proiectcad_sabauradubogdan-pspicefiles\schematic1\test.sim ] 


 ****     INITIAL TRANSIENT SOLUTION       TEMPERATURE =   27.000 DEG C

 ****     CURRENT STEP                     PARAM R =   22.0000E+03


******************************************************************************



 NODE   VOLTAGE     NODE   VOLTAGE     NODE   VOLTAGE     NODE   VOLTAGE


(   V+)    5.2776  (   V-)     .3391  (  VCC)   12.0000  ( -VCC)  -12.0000      

(N00365)    3.1375 (N00401)     .6151 (N00482)    2.7279 (N00763)    3.1375     

(N01168)   12.0000 (N01182)   11.8080 (N01288)    5.0016 (N01426)    5.0023     

(N03994)   11.2450 (N04230)   11.8590 (N04234)   11.8550 (N05088)     .4464     

(N09209)    3.0457 (N09213)    2.7273 (N09549)    3.0457 (N13651)   11.8080     

(X_U1.6)   -1.5301 (X_U1.7)   13.8380 (X_U1.8)   13.8380 (X_U1.9)    0.0000     

(X_U3.6)     .0111 (X_U3.7)     .5418 (X_U3.8)     .5418 (X_U3.9)    0.0000     

(X_U4.6)    -.0110 (X_U4.7)    5.0590 (X_U4.8)    5.0590 (X_U4.9)    0.0000     

(X_U5.6)-36.90E-06 (X_U5.7)    3.1580 (X_U5.8)    3.1580 (X_U5.9)    0.0000     

(X_U6.6)-26.92E-06 (X_U6.7)    3.0616 (X_U6.8)    3.0616 (X_U6.9)    0.0000     

(X_U1.10)    4.3608                   (X_U1.11)   12.0000                       

(X_U1.12)   11.9190                   (X_U1.13)    4.3608                       

(X_U1.14)    4.3893                   (X_U1.53)   11.0000                       

(X_U1.54)  -11.0000                   (X_U1.90)   40.6090                       

(X_U1.91)   40.0000                   (X_U1.92)  -40.0000                       

(X_U1.99)    0.0000                   (X_U3.10)    2.1199                       

(X_U3.11)    5.2377                   (X_U3.12)    5.2383                       

(X_U3.13)    2.1339                   (X_U3.14)    2.1337                       

(X_U3.53)    4.2776                   (X_U3.54)    1.3391                       

(X_U3.90)   -1.4661                   (X_U3.91)   40.0000                       

(X_U3.92)  -40.0000                   (X_U3.99)    2.8084                       

(X_U4.10)    4.3938                   (X_U4.11)    5.2379                       

(X_U4.12)    5.2372                   (X_U4.13)    4.4078                       

(X_U4.14)    4.4080                   (X_U4.53)    4.2776                       

(X_U4.54)    1.3391                   (X_U4.90)    1.1480                       

(X_U4.91)   40.0000                   (X_U4.92)  -40.0000                       

(X_U4.99)    2.8084                   (X_U5.10)    2.5297                       

(X_U5.11)    5.2379                   (X_U5.12)    5.2379                       

(X_U5.13)    2.5436                   (X_U5.14)    2.5436                       

(X_U5.53)    4.2776                   (X_U5.54)    1.3391                       

(X_U5.90)     .4103                   (X_U5.91)   40.0000                       

(X_U5.92)  -40.0000                   (X_U5.99)    2.8084                       

(X_U6.10)    2.4380                   (X_U6.11)    5.2379                       

(X_U6.12)    5.2379                   (X_U6.13)    2.4519                       

(X_U6.14)    2.4519                   (X_U6.53)    4.2776                       

(X_U6.54)    1.3391                   (X_U6.90)     .3179                       

(X_U6.91)   40.0000                   (X_U6.92)  -40.0000                       

(X_U6.99)    2.8084                   




    VOLTAGE SOURCE CURRENTS
    NAME         CURRENT

    V_VCC        2.570E-02
    V_-VCC       1.337E-03
    X_U1.vb     -1.530E-05
    X_U1.vc     -2.925E-02
    X_U1.ve      2.431E-11
    X_U1.vlim    4.061E-02
    X_U1.vlp     1.329E-05
    X_U1.vln    -8.061E-11
    X_U3.vb      1.105E-07
    X_U3.vc      3.663E-12
    X_U3.ve     -1.148E-03
    X_U3.vlim   -1.466E-03
    X_U3.vlp    -4.147E-11
    X_U3.vln    -3.854E-11
    X_U4.vb     -1.104E-07
    X_U4.vc     -1.148E-03
    X_U4.ve      3.480E-12
    X_U4.vlim    1.148E-03
    X_U4.vlp    -3.885E-11
    X_U4.vln    -4.115E-11
    X_U5.vb     -3.690E-10
    X_U5.vc      1.141E-12
    X_U5.ve      1.616E-12
    X_U5.vlim    4.103E-04
    X_U5.vlp    -3.959E-11
    X_U5.vln    -4.041E-11
    X_U6.vb     -2.692E-10
    X_U6.vc      1.233E-12
    X_U6.ve      1.524E-12
    X_U6.vlim    3.179E-04
    X_U6.vlp    -3.968E-11
    X_U6.vln    -4.032E-11

    TOTAL POWER DISSIPATION  -2.61E-01  WATTS


**** 05/18/23 15:21:05 **** PSpice 22.1.0 (6 October 2022) **** ID# 0 ********

 ** Profile: "SCHEMATIC1-test"  [ E:\Tehnici CAD\proiect\proiectcad_sabauradubogdan-pspicefiles\schematic1\test.sim ] 


 ****     INITIAL TRANSIENT SOLUTION       TEMPERATURE =   27.000 DEG C

 ****     CURRENT STEP                     PARAM R =   24.0000E+03


******************************************************************************



 NODE   VOLTAGE     NODE   VOLTAGE     NODE   VOLTAGE     NODE   VOLTAGE


(   V+)    4.3471  (   V-)    2.1929  (  VCC)   12.0000  ( -VCC)  -12.0000      

(N00365)    3.4196 (N00401)    2.4887 (N00482)    2.9728 (N00763)    3.4196     

(N01168)   12.0000 (N01182)   11.8080 (N01288)    4.0505 (N01426)    4.9583     

(N03994)   11.2450 (N04230)   11.8590 (N04234)   11.8560 (N05088)     .4464     

(N09209)    3.0457 (N09213)    2.9725 (N09549)    3.0457 (N13651)   11.8080     

(X_U1.6)   -1.5235 (X_U1.7)   13.8380 (X_U1.8)   13.8380 (X_U1.9)    0.0000     

(X_U3.6)     .0051 (X_U3.7)    2.4583 (X_U3.8)    2.4583 (X_U3.9)    0.0000     

(X_U4.6)    -.0050 (X_U4.7)    4.0765 (X_U4.8)    4.0765 (X_U4.9)    0.0000     

(X_U5.6)-20.51E-06 (X_U5.7)    3.4420 (X_U5.8)    3.4420 (X_U5.9)    0.0000     

(X_U6.6) 20.09E-06 (X_U6.7)    3.0494 (X_U6.8)    3.0494 (X_U6.9)    0.0000     

(X_U1.10)    3.4100                   (X_U1.11)   12.0000                       

(X_U1.12)   11.9190                   (X_U1.13)    3.4100                       

(X_U1.14)    3.4383                   (X_U1.53)   11.0000                       

(X_U1.54)  -11.0000                   (X_U1.90)   40.6090                       

(X_U1.91)   40.0000                   (X_U1.92)  -40.0000                       

(X_U1.99)    0.0000                   (X_U3.10)    2.3651                       

(X_U3.11)    4.3073                   (X_U3.12)    4.3076                       

(X_U3.13)    2.3790                   (X_U3.14)    2.3789                       

(X_U3.53)    3.3471                   (X_U3.54)    3.1929                       

(X_U3.90)    -.6079                   (X_U3.91)   40.0000                       

(X_U3.92)  -40.0000                   (X_U3.99)    3.2700                       

(X_U4.10)    4.3008                   (X_U4.11)    4.3471                       

(X_U4.12)    4.3468                   (X_U4.13)    4.3008                       

(X_U4.14)    4.3288                   (X_U4.53)    3.3471                       

(X_U4.54)    3.1930                   (X_U4.90)     .5195                       

(X_U4.91)   40.0000                   (X_U4.92)  -40.0000                       

(X_U4.99)    3.2700                   (X_U5.10)    2.8119                       

(X_U5.11)    4.3074                   (X_U5.12)    4.3074                       

(X_U5.13)    2.8258                   (X_U5.14)    2.8258                       

(X_U5.53)    3.3471                   (X_U5.54)    3.1929                       

(X_U5.90)     .4472                   (X_U5.91)   40.0000                       

(X_U5.92)  -40.0000                   (X_U5.99)    3.2700                       

(X_U6.10)    2.4381                   (X_U6.11)    4.3074                       

(X_U6.12)    4.3074                   (X_U6.13)    2.4519                       

(X_U6.14)    2.4519                   (X_U6.53)    3.3471                       

(X_U6.54)    3.1929                   (X_U6.90)     .0730                       

(X_U6.91)   40.0000                   (X_U6.92)  -40.0000                       

(X_U6.99)    3.2700                   




    VOLTAGE SOURCE CURRENTS
    NAME         CURRENT

    V_VCC        2.570E-02
    V_-VCC       1.337E-03
    X_U1.vb     -1.524E-05
    X_U1.vc     -2.925E-02
    X_U1.ve      2.431E-11
    X_U1.vlim    4.061E-02
    X_U1.vlp     1.322E-05
    X_U1.vln    -8.061E-11
    X_U3.vb      5.126E-08
    X_U3.vc      8.592E-13
    X_U3.ve     -5.351E-04
    X_U3.vlim   -6.079E-04
    X_U3.vlp    -4.061E-11
    X_U3.vln    -3.940E-11
    X_U4.vb     -4.976E-08
    X_U4.vc     -5.194E-04
    X_U4.ve      4.214E-13
    X_U4.vlim    5.195E-04
    X_U4.vlp    -3.948E-11
    X_U4.vln    -4.052E-11
    X_U5.vb     -2.051E-10
    X_U5.vc     -8.495E-14
    X_U5.ve     -2.095E-13
    X_U5.vlim    4.472E-04
    X_U5.vlp    -3.955E-11
    X_U5.vln    -4.045E-11
    X_U6.vb      2.009E-10
    X_U6.vc      3.022E-13
    X_U6.ve     -6.993E-13
    X_U6.vlim    7.296E-05
    X_U6.vlp    -3.993E-11
    X_U6.vln    -4.008E-11

    TOTAL POWER DISSIPATION  -2.63E-01  WATTS


**** 05/18/23 15:21:05 **** PSpice 22.1.0 (6 October 2022) **** ID# 0 ********

 ** Profile: "SCHEMATIC1-test"  [ E:\Tehnici CAD\proiect\proiectcad_sabauradubogdan-pspicefiles\schematic1\test.sim ] 


 ****     INITIAL TRANSIENT SOLUTION       TEMPERATURE =   27.000 DEG C

 ****     CURRENT STEP                     PARAM R =   26.0000E+03


******************************************************************************



 NODE   VOLTAGE     NODE   VOLTAGE     NODE   VOLTAGE     NODE   VOLTAGE


(   V+) -142.1100  (   V-) -374.6800  (  VCC)   12.0000  ( -VCC)  -12.0000      

(N00365) -311.8700 (N00401) -142.3300 (N00482) -344.1200 (N00763) -116.7600     

(N01168)    -.0451 (N01182)   -9.3558 (N01288) -374.5000 (N01426)  -46.8840     

(N03994)   11.2430 (N04230)   11.8580 (N04234)   11.8280 (N05088)   -9.3438     

(N09209) -374.4600 (N09213) -271.1000 (N09549)  -42.9610 (N13651)   -1.2432     

(X_U1.6)     .3426 (X_U1.7)  -11.3850 (X_U1.8)  -11.3850 (X_U1.9)    0.0000     

(X_U3.6)   -1.4079 (X_U3.7) -140.3000 (X_U3.8) -140.3000 (X_U3.9)    0.0000     

(X_U4.6) 1780.2000 (X_U4.7) -376.5400 (X_U4.8) -376.5400 (X_U4.9)    0.0000     

(X_U5.6)  463.6600 (X_U5.7) -313.9000 (X_U5.8) -313.9000 (X_U5.9)    0.0000     

(X_U6.6) 1854.1000 (X_U6.7) -376.5100 (X_U6.8) -376.5100 (X_U6.9)    0.0000     

(X_U1.10) -142.9200                   (X_U1.11)   11.9770                       

(X_U1.12)   12.0000                   (X_U1.13) -142.9100                       

(X_U1.14) -142.9200                   (X_U1.53)   11.0000                       

(X_U1.54)  -11.0000                   (X_U1.90)  -40.5750                       

(X_U1.91)   40.0000                   (X_U1.92)  -40.0000                       

(X_U1.99)    0.0000                   (X_U3.10) -271.7300                       

(X_U3.11) -142.1100                   (X_U3.12) -142.1900                       

(X_U3.13) -271.7300                   (X_U3.14) -271.7100                       

(X_U3.53) -143.1100                   (X_U3.54) -373.6800                       

(X_U3.90)   40.6100                   (X_U3.91)   40.0000                       

(X_U3.92)  -40.0000                   (X_U3.99) -258.4000                       

(X_U4.10)  -47.7360                   (X_U4.11) -142.1100                       

(X_U4.12)  -47.6790                   (X_U4.13)  -47.7360                       

(X_U4.14)  -47.6790                   (X_U4.53) -143.1100                       

(X_U4.54) -373.6800                   (X_U4.90)  -40.8150                       

(X_U4.91)   40.0000                   (X_U4.92)  -40.0000                       

(X_U4.99) -258.4000                   (X_U5.10) -117.5700                       

(X_U5.11) -142.1100                   (X_U5.12) -117.5200                       

(X_U5.13) -117.5700                   (X_U5.14) -117.5200                       

(X_U5.53) -143.1100                   (X_U5.54) -373.6800                       

(X_U5.90)  -40.7670                   (X_U5.91)   40.0000                       

(X_U5.92)  -40.0000                   (X_U5.99) -258.4000                       

(X_U6.10)  -43.8140                   (X_U6.11) -142.1100                       

(X_U6.12)  -43.7570                   (X_U6.13)  -43.8140                       

(X_U6.14)  -43.7570                   (X_U6.53) -143.1100                       

(X_U6.54) -373.6800                   (X_U6.90)  -40.8170                       

(X_U6.91)   40.0000                   (X_U6.92)  -40.0000                       

(X_U6.99) -258.4000                   




    VOLTAGE SOURCE CURRENTS
    NAME         CURRENT

    V_VCC       -2.742E-02
    V_-VCC       1.337E-03
    X_U1.vb      3.426E-06
    X_U1.vc      2.036E-11
    X_U1.ve      3.151E-12
    X_U1.vlim   -4.058E-02
    X_U1.vlp    -8.058E-11
    X_U1.vln     3.620E-06
    X_U3.vb     -1.408E-05
    X_U3.vc     -1.027E-02
    X_U3.ve      2.825E-10
    X_U3.vlim    4.061E-02
    X_U3.vlp     1.379E-05
    X_U3.vln    -8.061E-11
    X_U4.vb      1.780E-02
    X_U4.vc      2.314E-10
    X_U4.ve     -4.082E-02
    X_U4.vlim   -4.082E-02
    X_U4.vlp    -8.082E-11
    X_U4.vln     1.888E-02
    X_U5.vb      4.637E-03
    X_U5.vc      1.688E-10
    X_U5.ve      1.130E-10
    X_U5.vlim   -4.077E-02
    X_U5.vlp    -8.077E-11
    X_U5.vln     4.919E-03
    X_U6.vb      1.854E-02
    X_U6.vc      2.314E-10
    X_U6.ve     -1.047E-02
    X_U6.vlim   -4.082E-02
    X_U6.vlp    -8.082E-11
    X_U6.vln     1.967E-02

    TOTAL POWER DISSIPATION  -1.33E+00  WATTS


ERROR(ORPSIM-15138): Convergence problem in Transient Analysis at Time =  400.0E-12.
         Time step =  186.3E-21, minimum allowable step size =  1.000E-18

  These supply currents failed to converge:

    I(X_U1.vc)                =    3.863nA  \    24.51pA
    I(X_U1.ve)                =   -4.844nA  \    3.950pA
    I(X_U3.ve)                =   140.26nA  \    25.70nA
    I(X_U3.vlp)               =    13.80uA  \    13.79uA
    I(X_U4.vc)                =   370.52nA  \    13.82nA
    I(X_U5.vc)                =  -125.32nA  \   -92.96nA
    I(X_U5.ve)                =   108.21nA  \   -93.34nA
    I(X_U6.vc)                =   380.62nA  \    54.45nA
    I(X_U3.hlim)              =   -13.80uA  \   -13.79uA

  These devices failed to converge:
    X_U1.dc   X_U1.de   X_U3.de   X_U4.dc   X_U5.dc   X_U5.de   X_U6.dc   
    Q_Q6      



  Last node voltages tried were:

 NODE   VOLTAGE     NODE   VOLTAGE     NODE   VOLTAGE     NODE   VOLTAGE


(   V+) -142.1100  (   V-) -374.6800  (  VCC)   12.0000  ( -VCC)  -12.0000      

(N00365) -311.8700 (N00401) -142.3300 (N00482) -344.1200 (N00763) -116.7600     

(N01168)    -.0451 (N01182)   -9.3558 (N01288) -374.5000 (N01426)  -46.8850     

(N03994)   11.2430 (N04230)   11.8580 (N04234)   11.8280 (N05088)   -9.3438     

(N09209) -374.4700 (N09213) -271.1000 (N09549)  -42.9620 (N13651)   -1.2432     

(X_U1.6)     .3426 (X_U1.7)  -11.3850 (X_U1.8)  -11.3850 (X_U1.9)    0.0000     

(X_U3.6)   -1.4092 (X_U3.7) -140.3000 (X_U3.8) -140.3000 (X_U3.9)    0.0000     

(X_U4.6) 1780.2000 (X_U4.7) -376.5400 (X_U4.8) -376.5400 (X_U4.9)    0.0000     

(X_U5.6)  463.6500 (X_U5.7) -313.9000 (X_U5.8) -313.9000 (X_U5.9)    0.0000     

(X_U6.6) 1854.1000 (X_U6.7) -376.5100 (X_U6.8) -376.5100 (X_U6.9)    0.0000     

(X_U1.10) -142.9200                   (X_U1.11)   11.9770                       

(X_U1.12)   12.0000                   (X_U1.13) -142.9100                       

(X_U1.14) -142.9200                   (X_U1.53)   11.0000                       

(X_U1.54)  -11.0000                   (X_U1.90)  -40.5750                       

(X_U1.91)   40.0000                   (X_U1.92)  -40.0000                       

(X_U1.99)    0.0000                   (X_U3.10) -271.7400                       

(X_U3.11) -142.1100                   (X_U3.12) -142.1900                       

(X_U3.13) -271.7400                   (X_U3.14) -271.7100                       

(X_U3.53) -143.1100                   (X_U3.54) -373.6800                       

(X_U3.90)   40.6100                   (X_U3.91)   40.0000                       

(X_U3.92)  -40.0000                   (X_U3.99) -258.4000                       

(X_U4.10)  -47.7360                   (X_U4.11) -142.1100                       

(X_U4.12)  -47.6790                   (X_U4.13)  -47.7360                       

(X_U4.14)  -47.6790                   (X_U4.53) -143.1100                       

(X_U4.54) -373.6800                   (X_U4.90)  -40.8150                       

(X_U4.91)   40.0000                   (X_U4.92)  -40.0000                       

(X_U4.99) -258.4000                   (X_U5.10) -117.5700                       

(X_U5.11) -142.1100                   (X_U5.12) -117.5200                       

(X_U5.13) -117.5700                   (X_U5.14) -117.5200                       

(X_U5.53) -143.1100                   (X_U5.54) -373.6800                       

(X_U5.90)  -40.7670                   (X_U5.91)   40.0000                       

(X_U5.92)  -40.0000                   (X_U5.99) -258.4000                       

(X_U6.10)  -43.8150                   (X_U6.11) -142.1100                       

(X_U6.12)  -43.7570                   (X_U6.13)  -43.8150                       

(X_U6.14)  -43.7570                   (X_U6.53) -143.1100                       

(X_U6.54) -373.6800                   (X_U6.90)  -40.8170                       

(X_U6.91)   40.0000                   (X_U6.92)  -40.0000                       

(X_U6.99) -258.4000                   


**** Interrupt ****
