
**** 05/20/23 21:44:11 **** PSpice 22.1.0 (6 October 2022) **** ID# 0 ********

 ** Profile: "SCHEMATIC1-test"  [ E:\Tehnici CAD\proiect\proiectcad_sabauradubogdan-pspicefiles\schematic1\test.sim ] 


 ****     CIRCUIT DESCRIPTION


******************************************************************************




** Creating circuit file "test.cir" 
** WARNING: THIS AUTOMATICALLY GENERATED FILE MAY BE OVERWRITTEN BY SUBSEQUENT SIMULATIONS

*Libraries: 
* Profile Libraries :
* Local Libraries :
.LIB "../../../ledorange.lib" 
* From [PSPICE NETLIST] section of E:\CAD\cdssetup\OrCAD_PSpice\22.1.0\PSpice.ini file:
.lib "nom.lib" 

*Analysis directives: 
.TRAN  0 1000ns 0 
.MC 5 TRAN V([OUT]) YMAX OUTPUT ALL SEED=200 
.STEP LIN PARAM R 22k 32k 2k 
.OPTIONS ADVCONV
.PROBE64 V(alias(*)) I(alias(*)) W(alias(*)) D(alias(*)) NOISE(alias(*)) 
.INC "..\SCHEMATIC1.net" 



**** INCLUDING SCHEMATIC1.net ****
* source PROIECTCAD_SABAURADUBOGDAN
X_U1         N01288 N00401 VCC -VCC N01182 uA741
V_VCC         VCC 0 12V
V_-VCC         -VCC 0 -12V
R_R1         N05088 N01182 R_R1 1k TC=0,0 
.model        R_R1 RES R=1 DEV=1% TC1=0 TC2=0
R_R2         OUT VCC R_R2 1028 TC=0,0 
.model        R_R2 RES R=1 DEV=1% TC1=0 TC2=0
X_U3         N09213 N00482 V+ V- N00401 uA741
X_U4         N01426 N01288 V+ V- N01288 uA741
X_U5         N00763 N00365 V+ V- N00365 uA741
R_R3         N00482 N00401 R_R3 6.65k TC=0,0 
.model        R_R3 RES R=1 DEV=1% TC1=0 TC2=0
R_R4         N09209 N00482 R_R4 1k TC=0,0 
.model        R_R4 RES R=1 DEV=1% TC1=0 TC2=0
R_Rs         0 N00763 R_Rs {R} TC=0,0 
.model        R_Rs RES R=1 DEV=1% TC1=0 TC2=0
R_R11         N01426 VCC R_R11 6.98k TC=0,0 
.model        R_R11 RES R=1 DEV=1% TC1=0 TC2=0
R_R12         0 N01426 R_R12 4.99k TC=0,0 
.model        R_R12 RES R=1 DEV=1% TC1=0 TC2=0
Q_Q6         N00763 N03994 N04234 Q2N2604
Q_Q7         N03994 N03994 N04230 Q2N2604
R_R13         0 N03994 R_R13 78.7k TC=0,0 
.model        R_R13 RES R=1 DEV=1% TC1=0 TC2=0
R_R14         N04230 VCC R_R14 1k TC=0,0 
.model        R_R14 RES R=1 DEV=1% TC1=0 TC2=0
R_R15         N04234 VCC R_R15 1k TC=0,0 
.model        R_R15 RES R=1 DEV=1% TC1=0 TC2=0
D_D1          N05088 0 LedOrange 
R_R16         N01182 N13651 R_R16 28k TC=0,0 
.model        R_R16 RES R=1 DEV=1% TC1=0 TC2=0
R_R17         N00365 N09213 R_R17 1k TC=0,0 
.model        R_R17 RES R=1 DEV=1% TC1=0 TC2=0
R_R18         0 N09213 R_R18 6.65k TC=0,0 
.model        R_R18 RES R=1 DEV=1% TC1=0 TC2=0
X_U6         N09549 N09209 V+ V- N09209 uA741
R_R19         VCC N09549 R_R19 9.76k TC=0,0 
.model        R_R19 RES R=1 DEV=1% TC1=0 TC2=0
R_R20         0 N09549 R_R20 3.32k TC=0,0 
.model        R_R20 RES R=1 DEV=1% TC1=0 TC2=0
Q_Q8         0 N13651 OUT Q2N2604
.IC         V(N00482 )=0
.PARAM  r=22k

**** RESUMING test.cir ****
.END

**** 05/20/23 21:44:11 **** PSpice 22.1.0 (6 October 2022) **** ID# 0 ********

 ** Profile: "SCHEMATIC1-test"  [ E:\Tehnici CAD\proiect\proiectcad_sabauradubogdan-pspicefiles\schematic1\test.sim ] 


 ****     Diode MODEL PARAMETERS


******************************************************************************




               LedOrange       X_U1.dx         X_U1.dy         X_U3.dx         
          IS  432.450000E-15  800.000000E-18  800.000000E-18  800.000000E-18 
           N    2.4853                                                       
         ISR    5.071700E-06                                                 
         IKF   18.180000E-06                                                 
          BV  100                                                            
         IBV  100.000000E-06                                                 
          RS    2.9766          1               1.000000E-03    1            
          TT    5.000000E-09                                                 
         CJO    1.000000E-12                   10.000000E-12                 
          VJ     .75                                                         
           M     .3333                                                       


               X_U3.dy         X_U4.dx         X_U4.dy         X_U5.dx         
          IS  800.000000E-18  800.000000E-18  800.000000E-18  800.000000E-18 
          RS    1.000000E-03    1               1.000000E-03    1            
         CJO   10.000000E-12                   10.000000E-12                 


               X_U5.dy         X_U6.dx         X_U6.dy         
          IS  800.000000E-18  800.000000E-18  800.000000E-18 
          RS    1.000000E-03    1               1.000000E-03 
         CJO   10.000000E-12                   10.000000E-12 


**** 05/20/23 21:44:11 **** PSpice 22.1.0 (6 October 2022) **** ID# 0 ********

 ** Profile: "SCHEMATIC1-test"  [ E:\Tehnici CAD\proiect\proiectcad_sabauradubogdan-pspicefiles\schematic1\test.sim ] 


 ****     BJT MODEL PARAMETERS


******************************************************************************




               Q2N2604         X_U1.qx         X_U3.qx         X_U4.qx         
               PNP             NPN             NPN             NPN             
       LEVEL    1               1               1               1            
          IS    6.734000E-15  800.000000E-18  800.000000E-18  800.000000E-18 
          BF   66.17           93.75           93.75           93.75         
          NF    1               1               1               1            
         VAF   45.7                                                          
         IKF     .1614                                                       
         ISE    6.734000E-15                                                 
          NE    1.555                                                        
          BR    3.149           1               1               1            
          NR    1               1               1               1            
         ISS    0               0               0               0            
          RB   10                                                            
          RE    0               0               0               0            
          RC    1.67            0               0               0            
         CJE    7.500000E-12    0               0               0            
         VJE     .75             .75             .75             .75         
         MJE     .2861                                                       
         CJC    6.200000E-12    0               0               0            
         VJC     .75             .75             .75             .75         
         MJC     .301            .33             .33             .33         
        XCJC    1               1               1               1            
         CJS    0               0               0               0            
         VJS     .75             .75             .75             .75         
          TF  466.900000E-12                                                 
         XTF    8                                                            
         VTF    5                                                            
         ITF     .17                                                         
          TR   12.620000E-09                                                 
         XTB    1.5                                                          
          KF    0               0               0               0            
          AF    1               1               1               1            
          CN    2.2             2.42            2.42            2.42         
           D     .52             .87             .87             .87         


               X_U5.qx         X_U6.qx         
               NPN             NPN             
       LEVEL    1               1            
          IS  800.000000E-18  800.000000E-18 
          BF   93.75           93.75         
          NF    1               1            
          BR    1               1            
          NR    1               1            
         ISS    0               0            
          RE    0               0            
          RC    0               0            
         CJE    0               0            
         VJE     .75             .75         
         CJC    0               0            
         VJC     .75             .75         
         MJC     .33             .33         
        XCJC    1               1            
         CJS    0               0            
         VJS     .75             .75         
          KF    0               0            
          AF    1               1            
          CN    2.42            2.42         
           D     .87             .87         


**** 05/20/23 21:44:11 **** PSpice 22.1.0 (6 October 2022) **** ID# 0 ********

 ** Profile: "SCHEMATIC1-test"  [ E:\Tehnici CAD\proiect\proiectcad_sabauradubogdan-pspicefiles\schematic1\test.sim ] 


 ****     Resistor MODEL PARAMETERS


******************************************************************************




               R_R1            R_R2            R_R3            R_R4            
           R    1               1               1               1            


               R_Rs            R_R11           R_R12           R_R13           
           R    1               1               1               1            


               R_R14           R_R15           R_R16           R_R17           
           R    1               1               1               1            


               R_R18           R_R19           R_R20           
           R    1               1               1            


**** 05/20/23 21:44:11 **** PSpice 22.1.0 (6 October 2022) **** ID# 0 ********

 ** Profile: "SCHEMATIC1-test"  [ E:\Tehnici CAD\proiect\proiectcad_sabauradubogdan-pspicefiles\schematic1\test.sim ] 


 ****     INITIAL TRANSIENT SOLUTION       TEMPERATURE =   27.000 DEG C

 ****     CURRENT STEP                     PARAM R =   22.0000E+03

                      MONTE CARLO NOMINAL

******************************************************************************



 NODE   VOLTAGE     NODE   VOLTAGE     NODE   VOLTAGE     NODE   VOLTAGE


(   V+)    2.0535  (   V-) -182.3900  (  OUT)     .0969  (  VCC)   12.0000      

( -VCC)  -12.0000  (N00365)    1.6524 (N00401)    1.8696 (N00482)-80.71E-06     

(N00763)    2.6707 (N01182)  -11.8160 (N01288) -182.2100 (N01426)    4.1598     

(N03994)   11.2450 (N04230)   11.8590 (N04234)   11.8550 (N05088)  -11.8030     

(N09209)  -40.6370 (N09213)    1.4362 (N09549)    2.8985 (N13651)    -.6389     

(X_U1.6)    1.5099 (X_U1.7)  -13.8460 (X_U1.8)  -13.8460 (X_U1.9)    0.0000     

(X_U3.6)   -2.1280 (X_U3.7)    3.9005 (X_U3.8)    3.9005 (X_U3.9)    0.0000     

(X_U4.6)   26.7900 (X_U4.7) -184.2400 (X_U4.8) -184.2400 (X_U4.9)    0.0000     

(X_U5.6)    -.0087 (X_U5.7)    1.6636 (X_U5.8)    1.6636 (X_U5.9)    0.0000     

(X_U6.6)    3.7866 (X_U6.7)  -42.6690 (X_U6.8)  -42.6690 (X_U6.9)    0.0000     

(X_U1.10)    1.2296                   (X_U1.11)   11.9200                       

(X_U1.12)   12.0000                   (X_U1.13)    1.2576                       

(X_U1.14)    1.2296                   (X_U1.53)   11.0000                       

(X_U1.54)  -11.0000                   (X_U1.90)  -40.6060                       

(X_U1.91)   40.0000                   (X_U1.92)  -40.0000                       

(X_U1.99)    0.0000                   (X_U3.10)     .7742                       

(X_U3.11)    2.0535                   (X_U3.12)    1.9377                       

(X_U3.13)     .7742                   (X_U3.14)     .8147                       

(X_U3.53)    1.0535                   (X_U3.54) -181.3900                       

(X_U3.90)   40.6170                   (X_U3.91)   40.0000                       

(X_U3.92)  -40.0000                   (X_U3.99)  -90.1700                       

(X_U4.10)    3.4292                   (X_U4.11)    2.0535                       

(X_U4.12)    3.4718                   (X_U4.13)    3.4292                       

(X_U4.14)    3.4701                   (X_U4.53)    1.0536                       

(X_U4.54) -181.3900                   (X_U4.90)  -40.6880                       

(X_U4.91)   40.0000                   (X_U4.92)  -40.0000                       

(X_U4.99)  -90.1700                   (X_U5.10)    1.9911                       

(X_U5.11)    2.0535                   (X_U5.12)    2.0501                       

(X_U5.13)    1.9911                   (X_U5.14)    2.0318                       

(X_U5.53)    1.0535                   (X_U5.54) -181.3900                       

(X_U5.90)     .2253                   (X_U5.91)   40.0000                       

(X_U5.92)  -40.0000                   (X_U5.99)  -90.1700                       

(X_U6.10)    2.2028                   (X_U6.11)    2.0535                       

(X_U6.12)    2.2515                   (X_U6.13)    2.2028                       

(X_U6.14)    2.2434                   (X_U6.53)    1.0535                       

(X_U6.54) -181.3900                   (X_U6.90)  -40.6370                       

(X_U6.91)   40.0000                   (X_U6.92)  -40.0000                       

(X_U6.99)  -90.1700                   




    VOLTAGE SOURCE CURRENTS
    NAME         CURRENT

    V_VCC       -1.526E-02
    V_-VCC      -3.886E-02
    X_U1.vb      1.510E-05
    X_U1.vc      2.282E-11
    X_U1.ve     -4.019E-02
    X_U1.vlim   -4.061E-02
    X_U1.vlp    -8.061E-11
    X_U1.vln     1.198E-05
    X_U3.vb     -2.128E-05
    X_U3.vc     -4.034E-02
    X_U3.ve      2.081E-10
    X_U3.vlim    4.062E-02
    X_U3.vlp     1.845E-05
    X_U3.vln    -8.062E-11
    X_U4.vb      2.679E-04
    X_U4.vc      1.833E-10
    X_U4.ve     -4.069E-02
    X_U4.vlim   -4.069E-02
    X_U4.vlp    -8.069E-11
    X_U4.vln     2.801E-04
    X_U5.vb     -8.743E-08
    X_U5.vc     -9.091E-06
    X_U5.ve      2.079E-10
    X_U5.vlim    2.253E-04
    X_U5.vlp    -3.978E-11
    X_U5.vln    -4.023E-11
    X_U6.vb      3.787E-05
    X_U6.vc      4.169E-11
    X_U6.ve      1.656E-10
    X_U6.vlim   -4.064E-02
    X_U6.vlp    -8.064E-11
    X_U6.vln     4.022E-05

    TOTAL POWER DISSIPATION  -1.76E-01  WATTS


**** 05/20/23 21:44:11 **** PSpice 22.1.0 (6 October 2022) **** ID# 0 ********

 ** Profile: "SCHEMATIC1-test"  [ E:\Tehnici CAD\proiect\proiectcad_sabauradubogdan-pspicefiles\schematic1\test.sim ] 


 ****     INITIAL TRANSIENT SOLUTION       TEMPERATURE =   27.000 DEG C

 ****     CURRENT STEP                     PARAM R =   22.0000E+03

                      MONTE CARLO PASS 2

******************************************************************************



 NODE   VOLTAGE     NODE   VOLTAGE     NODE   VOLTAGE     NODE   VOLTAGE


(   V+)    2.0662  (   V-) -182.3800  (  OUT)     .0969  (  VCC)   12.0000      

( -VCC)  -12.0000  (N00365)    1.6704 (N00401)    1.8823 (N00482)-80.71E-06     

(N00763)    2.6834 (N01182)  -11.8160 (N01288) -182.2000 (N01426)    4.1840     

(N03994)   11.2440 (N04230)   11.8580 (N04234)   11.8540 (N05088)  -11.8030     

(N09209)  -41.0080 (N09213)    1.4495 (N09549)    2.8958 (N13651)    -.6389     

(X_U1.6)    1.5100 (X_U1.7)  -13.8460 (X_U1.8)  -13.8460 (X_U1.9)    0.0000     

(X_U3.6)   -2.1280 (X_U3.7)    3.9132 (X_U3.8)    3.9132 (X_U3.9)    0.0000     

(X_U4.6)   27.0030 (X_U4.7) -184.2300 (X_U4.8) -184.2300 (X_U4.9)    0.0000     

(X_U5.6)    -.0088 (X_U5.7)    1.6819 (X_U5.8)    1.6819 (X_U5.9)    0.0000     

(X_U6.6)    3.5172 (X_U6.7)  -43.0400 (X_U6.8)  -43.0400 (X_U6.9)    0.0000     

(X_U1.10)    1.2424                   (X_U1.11)   11.9200                       

(X_U1.12)   12.0000                   (X_U1.13)    1.2704                       

(X_U1.14)    1.2424                   (X_U1.53)   11.0000                       

(X_U1.54)  -11.0000                   (X_U1.90)  -40.6060                       

(X_U1.91)   40.0000                   (X_U1.92)  -40.0000                       

(X_U1.99)    0.0000                   (X_U3.10)     .7875                       

(X_U3.11)    2.0662                   (X_U3.12)    1.9505                       

(X_U3.13)     .7875                   (X_U3.14)     .8280                       

(X_U3.53)    1.0662                   (X_U3.54) -181.3800                       

(X_U3.90)   40.6170                   (X_U3.91)   40.0000                       

(X_U3.92)  -40.0000                   (X_U3.99)  -90.1580                       

(X_U4.10)    3.4533                   (X_U4.11)    2.0662                       

(X_U4.12)    3.4958                   (X_U4.13)    3.4533                       

(X_U4.14)    3.4941                   (X_U4.53)    1.0663                       

(X_U4.54) -181.3800                   (X_U4.90)  -40.6880                       

(X_U4.91)   40.0000                   (X_U4.92)  -40.0000                       

(X_U4.99)  -90.1580                   (X_U5.10)    2.0039                       

(X_U5.11)    2.0662                   (X_U5.12)    2.0629                       

(X_U5.13)    2.0039                   (X_U5.14)    2.0445                       

(X_U5.53)    1.0662                   (X_U5.54) -181.3800                       

(X_U5.90)     .2302                   (X_U5.91)   40.0000                       

(X_U5.92)  -40.0000                   (X_U5.99)  -90.1580                       

(X_U6.10)    2.2009                   (X_U6.11)    2.0662                       

(X_U6.12)    2.2499                   (X_U6.13)    2.2009                       

(X_U6.14)    2.2416                   (X_U6.53)    1.0662                       

(X_U6.54) -181.3800                   (X_U6.90)  -40.6350                       

(X_U6.91)   40.0000                   (X_U6.92)  -40.0000                       

(X_U6.99)  -90.1580                   




    VOLTAGE SOURCE CURRENTS
    NAME         CURRENT

    V_VCC       -1.524E-02
    V_-VCC      -3.886E-02
    X_U1.vb      1.510E-05
    X_U1.vc      2.282E-11
    X_U1.ve     -4.019E-02
    X_U1.vlim   -4.061E-02
    X_U1.vlp    -8.061E-11
    X_U1.vln     1.198E-05
    X_U3.vb     -2.128E-05
    X_U3.vc     -4.033E-02
    X_U3.ve      2.081E-10
    X_U3.vlim    4.062E-02
    X_U3.vlp     1.845E-05
    X_U3.vln    -8.062E-11
    X_U4.vb      2.700E-04
    X_U4.vc      1.833E-10
    X_U4.ve     -4.069E-02
    X_U4.vlim   -4.069E-02
    X_U4.vlp    -8.069E-11
    X_U4.vln     2.823E-04
    X_U5.vb     -8.763E-08
    X_U5.vc     -1.116E-05
    X_U5.ve      2.079E-10
    X_U5.vlim    2.302E-04
    X_U5.vlp    -3.977E-11
    X_U5.vln    -4.023E-11
    X_U6.vb      3.517E-05
    X_U6.vc      4.207E-11
    X_U6.ve      1.652E-10
    X_U6.vlim   -4.064E-02
    X_U6.vlp    -8.064E-11
    X_U6.vln     3.736E-05

    TOTAL POWER DISSIPATION  -1.76E-01  WATTS


**** 05/20/23 21:44:11 **** PSpice 22.1.0 (6 October 2022) **** ID# 0 ********

 ** Profile: "SCHEMATIC1-test"  [ E:\Tehnici CAD\proiect\proiectcad_sabauradubogdan-pspicefiles\schematic1\test.sim ] 


 ****     INITIAL TRANSIENT SOLUTION       TEMPERATURE =   27.000 DEG C

 ****     CURRENT STEP                     PARAM R =   22.0000E+03

                      MONTE CARLO PASS 3

******************************************************************************



 NODE   VOLTAGE     NODE   VOLTAGE     NODE   VOLTAGE     NODE   VOLTAGE


(   V+)    2.0026  (   V-) -182.4500  (  OUT)     .0976  (  VCC)   12.0000      

( -VCC)  -12.0000  (N00365)     .1016 (N00401)    1.8187 (N00482)-80.73E-06     

(N00763)    2.6198 (N01182)  -11.8160 (N01288) -182.2600 (N01426)    4.1334     

(N03994)   11.2460 (N04230)   11.8610 (N04234)   11.8570 (N05088)  -11.8030     

(N09209)  -40.6060 (N09213)     .0882 (N09549)    2.8875 (N13651)    -.6382     

(X_U1.6)    1.5095 (X_U1.7)  -13.8460 (X_U1.8)  -13.8460 (X_U1.9)    0.0000     

(X_U3.6)   -1.6748 (X_U3.7)    3.8492 (X_U3.8)    3.8492 (X_U3.9)    0.0000     

(X_U4.6)   27.2440 (X_U4.7) -184.3000 (X_U4.8) -184.3000 (X_U4.9)    0.0000     

(X_U5.6)    -.0085 (X_U5.7)     .1023 (X_U5.8)     .1023 (X_U5.9)    0.0000     

(X_U6.6)    4.4832 (X_U6.7)  -42.6380 (X_U6.8)  -42.6380 (X_U6.9)    0.0000     

(X_U1.10)    1.1787                   (X_U1.11)   11.9200                       

(X_U1.12)   12.0000                   (X_U1.13)    1.2067                       

(X_U1.14)    1.1787                   (X_U1.53)   11.0000                       

(X_U1.54)  -11.0000                   (X_U1.90)  -40.6060                       

(X_U1.91)   40.0000                   (X_U1.92)  -40.0000                       

(X_U1.99)    0.0000                   (X_U3.10)    -.5666                       

(X_U3.11)    1.9908                   (X_U3.12)    1.8991                       

(X_U3.13)    -.5625                   (X_U3.14)    -.5304                       

(X_U3.53)    1.0026                   (X_U3.54) -181.4500                       

(X_U3.90)   40.6090                   (X_U3.91)   40.0000                       

(X_U3.92)  -40.0000                   (X_U3.99)  -90.2220                       

(X_U4.10)    3.4025                   (X_U4.11)    2.0026                       

(X_U4.12)    3.4450                   (X_U4.13)    3.4025                       

(X_U4.14)    3.4433                   (X_U4.53)    1.0026                       

(X_U4.54) -181.4500                   (X_U4.90)  -40.6880                       

(X_U4.91)   40.0000                   (X_U4.92)  -40.0000                       

(X_U4.99)  -90.2220                   (X_U5.10)    1.9403                       

(X_U5.11)    2.0026                   (X_U5.12)    1.9992                       

(X_U5.13)    1.9403                   (X_U5.14)    1.9809                       

(X_U5.53)    1.0026                   (X_U5.54) -181.4500                       

(X_U5.90)     .0134                   (X_U5.91)   40.0000                       

(X_U5.92)  -40.0000                   (X_U5.99)  -90.2220                       

(X_U6.10)    2.1896                   (X_U6.11)    2.0026                       

(X_U6.12)    2.2375                   (X_U6.13)    2.1896                       

(X_U6.14)    2.2303                   (X_U6.53)    1.0026                       

(X_U6.54) -181.4500                   (X_U6.90)  -40.6420                       

(X_U6.91)   40.0000                   (X_U6.92)  -40.0000                       

(X_U6.99)  -90.2220                   




    VOLTAGE SOURCE CURRENTS
    NAME         CURRENT

    V_VCC       -1.530E-02
    V_-VCC      -3.886E-02
    X_U1.vb      1.510E-05
    X_U1.vc      2.282E-11
    X_U1.ve     -4.020E-02
    X_U1.vlim   -4.061E-02
    X_U1.vlp    -8.061E-11
    X_U1.vln     1.198E-05
    X_U3.vb     -1.675E-05
    X_U3.vc     -4.033E-02
    X_U3.ve      2.081E-10
    X_U3.vlim    4.061E-02
    X_U3.vlp     1.364E-05
    X_U3.vln    -8.061E-11
    X_U4.vb      2.724E-04
    X_U4.vc      1.833E-10
    X_U4.ve     -4.069E-02
    X_U4.vlim   -4.069E-02
    X_U4.vlp    -8.069E-11
    X_U4.vln     2.849E-04
    X_U5.vb     -8.513E-08
    X_U5.vc      9.018E-13
    X_U5.ve      2.064E-10
    X_U5.vlim    1.338E-05
    X_U5.vlp    -3.999E-11
    X_U5.vln    -4.002E-11
    X_U6.vb      4.483E-05
    X_U6.vc      4.161E-11
    X_U6.ve      1.657E-10
    X_U6.vlim   -4.064E-02
    X_U6.vlp    -8.064E-11
    X_U6.vln     4.761E-05

    TOTAL POWER DISSIPATION  -1.76E-01  WATTS


**** 05/20/23 21:44:11 **** PSpice 22.1.0 (6 October 2022) **** ID# 0 ********

 ** Profile: "SCHEMATIC1-test"  [ E:\Tehnici CAD\proiect\proiectcad_sabauradubogdan-pspicefiles\schematic1\test.sim ] 


 ****     INITIAL TRANSIENT SOLUTION       TEMPERATURE =   27.000 DEG C

 ****     CURRENT STEP                     PARAM R =   22.0000E+03

                      MONTE CARLO PASS 4

******************************************************************************



 NODE   VOLTAGE     NODE   VOLTAGE     NODE   VOLTAGE     NODE   VOLTAGE


(   V+)    2.0600  (   V-) -182.3900  (  OUT)     .0974  (  VCC)   12.0000      

( -VCC)  -12.0000  (N00365)    1.6597 (N00401)    1.8761 (N00482)-80.71E-06     

(N00763)    2.6772 (N01182)  -11.8160 (N01288) -182.2000 (N01426)    4.1607     

(N03994)   11.2450 (N04230)   11.8600 (N04234)   11.8560 (N05088)  -11.8030     

(N09209)  -41.0300 (N09213)    1.4446 (N09549)    2.9069 (N13651)    -.6384     

(X_U1.6)    1.5100 (X_U1.7)  -13.8460 (X_U1.8)  -13.8460 (X_U1.9)    0.0000     

(X_U3.6)   -2.1280 (X_U3.7)    3.9069 (X_U3.8)    3.9069 (X_U3.9)    0.0000     

(X_U4.6)   26.6870 (X_U4.7) -184.2400 (X_U4.8) -184.2400 (X_U4.9)    0.0000     

(X_U5.6)    -.0087 (X_U5.7)    1.6710 (X_U5.8)    1.6710 (X_U5.9)    0.0000     

(X_U6.6)    3.8197 (X_U6.7)  -43.0620 (X_U6.8)  -43.0620 (X_U6.9)    0.0000     

(X_U1.10)    1.2361                   (X_U1.11)   11.9200                       

(X_U1.12)   12.0000                   (X_U1.13)    1.2641                       

(X_U1.14)    1.2361                   (X_U1.53)   11.0000                       

(X_U1.54)  -11.0000                   (X_U1.90)  -40.6060                       

(X_U1.91)   40.0000                   (X_U1.92)  -40.0000                       

(X_U1.99)    0.0000                   (X_U3.10)     .7826                       

(X_U3.11)    2.0600                   (X_U3.12)    1.9442                       

(X_U3.13)     .7826                   (X_U3.14)     .8231                       

(X_U3.53)    1.0600                   (X_U3.54) -181.3900                       

(X_U3.90)   40.6170                   (X_U3.91)   40.0000                       

(X_U3.92)  -40.0000                   (X_U3.99)  -90.1630                       

(X_U4.10)    3.4302                   (X_U4.11)    2.0600                       

(X_U4.12)    3.4727                   (X_U4.13)    3.4302                       

(X_U4.14)    3.4711                   (X_U4.53)    1.0600                       

(X_U4.54) -181.3900                   (X_U4.90)  -40.6880                       

(X_U4.91)   40.0000                   (X_U4.92)  -40.0000                       

(X_U4.99)  -90.1630                   (X_U5.10)    1.9976                       

(X_U5.11)    2.0600                   (X_U5.12)    2.0566                       

(X_U5.13)    1.9976                   (X_U5.14)    2.0383                       

(X_U5.53)    1.0600                   (X_U5.54) -181.3900                       

(X_U5.90)     .2258                   (X_U5.91)   40.0000                       

(X_U5.92)  -40.0000                   (X_U5.99)  -90.1630                       

(X_U6.10)    2.2110                   (X_U6.11)    2.0600                       

(X_U6.12)    2.2597                   (X_U6.13)    2.2110                       

(X_U6.14)    2.2517                   (X_U6.53)    1.0600                       

(X_U6.54) -181.3900                   (X_U6.90)  -40.6380                       

(X_U6.91)   40.0000                   (X_U6.92)  -40.0000                       

(X_U6.99)  -90.1630                   




    VOLTAGE SOURCE CURRENTS
    NAME         CURRENT

    V_VCC       -1.532E-02
    V_-VCC      -3.886E-02
    X_U1.vb      1.510E-05
    X_U1.vc      2.282E-11
    X_U1.ve     -4.020E-02
    X_U1.vlim   -4.061E-02
    X_U1.vlp    -8.061E-11
    X_U1.vln     1.198E-05
    X_U3.vb     -2.128E-05
    X_U3.vc     -4.034E-02
    X_U3.ve      2.081E-10
    X_U3.vlim    4.062E-02
    X_U3.vlp     1.845E-05
    X_U3.vln    -8.062E-11
    X_U4.vb      2.669E-04
    X_U4.vc      1.833E-10
    X_U4.ve     -4.069E-02
    X_U4.vlim   -4.069E-02
    X_U4.vlp    -8.069E-11
    X_U4.vln     2.790E-04
    X_U5.vb     -8.746E-08
    X_U5.vc     -9.402E-06
    X_U5.ve      2.079E-10
    X_U5.vlim    2.258E-04
    X_U5.vlp    -3.978E-11
    X_U5.vln    -4.023E-11
    X_U6.vb      3.820E-05
    X_U6.vc      4.209E-11
    X_U6.ve      1.652E-10
    X_U6.vlim   -4.064E-02
    X_U6.vlp    -8.064E-11
    X_U6.vln     4.057E-05

    TOTAL POWER DISSIPATION  -1.75E-01  WATTS


**** 05/20/23 21:44:11 **** PSpice 22.1.0 (6 October 2022) **** ID# 0 ********

 ** Profile: "SCHEMATIC1-test"  [ E:\Tehnici CAD\proiect\proiectcad_sabauradubogdan-pspicefiles\schematic1\test.sim ] 


 ****     INITIAL TRANSIENT SOLUTION       TEMPERATURE =   27.000 DEG C

 ****     CURRENT STEP                     PARAM R =   22.0000E+03

                      MONTE CARLO PASS 5

******************************************************************************



 NODE   VOLTAGE     NODE   VOLTAGE     NODE   VOLTAGE     NODE   VOLTAGE


(   V+)   78.1480  (   V-)    2.8661  (  OUT)   12.0000  (  VCC)   12.0000      

( -VCC)  -12.0000  (N00365)    3.1533 (N00401)   77.9410 (N00482) 29.52E-06     

(N00763)    3.1513 (N01182)   11.8080 (N01288)    4.9824 (N01426)    4.9809     

(N03994)   11.2450 (N04230)   11.8590 (N04234)   11.8560 (N05088)     .4458     

(N09209)    3.0742 (N09213)    2.7399 (N09549)    3.0633 (N13651)   11.8080     

(X_U1.6)-1228.1000 (X_U1.7)   13.8480 (X_U1.8)   13.8480 (X_U1.9)    0.0000     

(X_U3.6)   -1.2348 (X_U3.7)   79.9710 (X_U3.8)   79.9710 (X_U3.9)    0.0000     

(X_U4.6)     .0033 (X_U4.7)    4.9824 (X_U4.8)    4.9824 (X_U4.9)    0.0000     

(X_U5.6)     .0106 (X_U5.7)    3.1367 (X_U5.8)    3.1367 (X_U5.9)    0.0000     

(X_U6.6)     .1535 (X_U6.7)    2.4339 (X_U6.8)    2.4339 (X_U6.9)    0.0000     

(X_U1.10)   77.1180                   (X_U1.11)   77.1560                       

(X_U1.12)   12.0000                   (X_U1.13)   77.1560                       

(X_U1.14)   77.1180                   (X_U1.53)   11.0000                       

(X_U1.54)  -11.0000                   (X_U1.90)   40.8000                       

(X_U1.91)   40.0000                   (X_U1.92)  -40.0000                       

(X_U1.99)    0.0000                   (X_U3.10)    2.1112                       

(X_U3.11)   78.1480                   (X_U3.12)   78.0840                       

(X_U3.13)    2.1112                   (X_U3.14)    2.1336                       

(X_U3.53)   77.1480                   (X_U3.54)    3.8661                       

(X_U3.90)   40.6050                   (X_U3.91)   40.0000                       

(X_U3.92)  -40.0000                   (X_U3.99)   40.5070                       

(X_U4.10)    4.3815                   (X_U4.11)   78.1150                       

(X_U4.12)   78.1160                   (X_U4.13)    4.3932                       

(X_U4.14)    4.3927                   (X_U4.53)   77.1480                       

(X_U4.54)    3.8661                   (X_U4.90) 66.39E-06                       

(X_U4.91)   40.0000                   (X_U4.92)  -40.0000                       

(X_U4.99)   40.5070                   (X_U5.10)    2.5526                       

(X_U5.11)   78.1150                   (X_U5.12)   78.1170                       

(X_U5.13)    2.5642                   (X_U5.14)    2.5635                       

(X_U5.53)   77.1480                   (X_U5.54)    3.8661                       

(X_U5.90)    -.3309                   (X_U5.91)   40.0000                       

(X_U5.92)  -40.0000                   (X_U5.99)   40.5070                       

(X_U6.10)    2.4693                   (X_U6.11)   78.1110                       

(X_U6.12)   78.1200                   (X_U6.13)    2.4822                       

(X_U6.14)    2.4790                   (X_U6.53)   77.1480                       

(X_U6.54)    3.8661                   (X_U6.90)  -12.8050                       

(X_U6.91)   40.0000                   (X_U6.92)  -40.0000                       

(X_U6.99)   40.5070                   




    VOLTAGE SOURCE CURRENTS
    NAME         CURRENT

    V_VCC        3.827E-02
    V_-VCC       1.337E-03
    X_U1.vb     -1.228E-02
    X_U1.vc     -2.952E-02
    X_U1.ve      7.236E-11
    X_U1.vlim    4.080E-02
    X_U1.vlp     1.303E-02
    X_U1.vln    -2.555E-10
    X_U3.vb     -1.235E-05
    X_U3.vc     -1.663E-02
    X_U3.ve      2.342E-10
    X_U3.vlim    4.060E-02
    X_U3.vlp     1.139E-05
    X_U3.vln    -2.549E-10
    X_U4.vb      3.348E-08
    X_U4.vc      2.282E-10
    X_U4.ve      3.450E-12
    X_U4.vlim    6.639E-08
    X_U4.vlp    -1.265E-10
    X_U4.vln    -1.265E-10
    X_U5.vb      1.056E-07
    X_U5.vc      2.340E-10
    X_U5.ve     -7.462E-04
    X_U5.vlim   -3.309E-04
    X_U5.vlp    -1.275E-10
    X_U5.vln    -1.254E-10
    X_U6.vb      1.535E-06
    X_U6.vc      2.342E-10
    X_U6.ve     -1.590E-02
    X_U6.vlim   -1.281E-02
    X_U6.vlp    -1.670E-10
    X_U6.vln    -8.600E-11

    TOTAL POWER DISSIPATION  -9.02E-01  WATTS


**** 05/20/23 21:44:11 **** PSpice 22.1.0 (6 October 2022) **** ID# 0 ********

 ** Profile: "SCHEMATIC1-test"  [ E:\Tehnici CAD\proiect\proiectcad_sabauradubogdan-pspicefiles\schematic1\test.sim ] 


 ****     SORTED DEVIATIONS OF V(OUT)      TEMPERATURE =   27.000 DEG C

 ****     CURRENT STEP                     PARAM R =   22.0000E+03

                      MONTE CARLO SUMMARY

******************************************************************************





Mean Deviation =    2.9761
Sigma          =    5.154 

 RUN                    MAX DEVIATION FROM NOMINAL

Pass    5               11.903  (2.31 sigma)  higher  at T =  200.0000E-12
                        (  12.3860E+03% of Nominal)

Pass    3            686.4700E-06  ( .00 sigma)  higher  at T =  200.0000E-12
                        ( 100.71% of Nominal)

Pass    4            561.4200E-06  ( .00 sigma)  higher  at T =  200.0000E-12
                        ( 100.58% of Nominal)

Pass    2             26.4120E-06  ( .00 sigma)  lower  at T =  200.0000E-12
                        (  99.973% of Nominal)


**** 05/20/23 21:44:11 **** PSpice 22.1.0 (6 October 2022) **** ID# 0 ********

 ** Profile: "SCHEMATIC1-test"  [ E:\Tehnici CAD\proiect\proiectcad_sabauradubogdan-pspicefiles\schematic1\test.sim ] 


 ****     INITIAL TRANSIENT SOLUTION       TEMPERATURE =   27.000 DEG C

 ****     CURRENT STEP                     PARAM R =   24.0000E+03

                      MONTE CARLO NOMINAL

******************************************************************************



 NODE   VOLTAGE     NODE   VOLTAGE     NODE   VOLTAGE     NODE   VOLTAGE


(   V+)   78.0530  (   V-)    2.8501  (  OUT)   12.0000  (  VCC)   12.0000      

( -VCC)  -12.0000  (N00365)    3.4215 (N00401)   77.8460 (N00482) 29.53E-06     

(N00763)    3.4200 (N01182)   11.8080 (N01288)    5.0038 (N01426)    5.0023     

(N03994)   11.2450 (N04230)   11.8590 (N04234)   11.8560 (N05088)     .4464     

(N09209)    3.0570 (N09213)    2.9742 (N09549)    3.0457 (N13651)   11.8080     

(X_U1.6)-1226.4000 (X_U1.7)   13.8480 (X_U1.8)   13.8480 (X_U1.9)    0.0000     

(X_U3.6)   -1.2368 (X_U3.7)   79.8770 (X_U3.8)   79.8770 (X_U3.9)    0.0000     

(X_U4.6)     .0033 (X_U4.7)    5.0038 (X_U4.8)    5.0038 (X_U4.9)    0.0000     

(X_U5.6)     .0035 (X_U5.7)    3.4439 (X_U5.8)    3.4439 (X_U5.9)    0.0000     

(X_U6.6)     .1604 (X_U6.7)    2.3786 (X_U6.8)    2.3786 (X_U6.9)    0.0000     

(X_U1.10)   77.0230                   (X_U1.11)   77.0610                       

(X_U1.12)   12.0000                   (X_U1.13)   77.0620                       

(X_U1.14)   77.0230                   (X_U1.53)   11.0000                       

(X_U1.54)  -11.0000                   (X_U1.90)   40.8000                       

(X_U1.91)   40.0000                   (X_U1.92)  -40.0000                       

(X_U1.99)    0.0000                   (X_U3.10)    2.3453                       

(X_U3.11)   78.0530                   (X_U3.12)   77.9890                       

(X_U3.13)    2.3453                   (X_U3.14)    2.3678                       

(X_U3.53)   77.0530                   (X_U3.54)    3.8501                       

(X_U3.90)   40.6050                   (X_U3.91)   40.0000                       

(X_U3.92)  -40.0000                   (X_U3.99)   40.4520                       

(X_U4.10)    4.4029                   (X_U4.11)   78.0200                       

(X_U4.12)   78.0210                   (X_U4.13)    4.4146                       

(X_U4.14)    4.4141                   (X_U4.53)   77.0530                       

(X_U4.54)    3.8498                   (X_U4.90) 66.75E-06                       

(X_U4.91)   40.0000                   (X_U4.92)  -40.0000                       

(X_U4.99)   40.4520                   (X_U5.10)    2.8210                       

(X_U5.11)   78.0200                   (X_U5.12)   78.0220                       

(X_U5.13)    2.8325                   (X_U5.14)    2.8320                       

(X_U5.53)   77.0530                   (X_U5.54)    3.8501                       

(X_U5.90)     .4474                   (X_U5.91)   40.0000                       

(X_U5.92)  -40.0000                   (X_U5.99)   40.4520                       

(X_U6.10)    2.4520                   (X_U6.11)   78.0160                       

(X_U6.12)   78.0260                   (X_U6.13)    2.4649                       

(X_U6.14)    2.4615                   (X_U6.53)   77.0530                       

(X_U6.54)    3.8501                   (X_U6.90)  -13.5680                       

(X_U6.91)   40.0000                   (X_U6.92)  -40.0000                       

(X_U6.99)   40.4520                   




    VOLTAGE SOURCE CURRENTS
    NAME         CURRENT

    V_VCC        3.818E-02
    V_-VCC       1.337E-03
    X_U1.vb     -1.226E-02
    X_U1.vc     -2.944E-02
    X_U1.ve      2.431E-11
    X_U1.vlim    4.080E-02
    X_U1.vlp     1.301E-02
    X_U1.vln    -8.080E-11
    X_U3.vb     -1.237E-05
    X_U3.vc     -1.661E-02
    X_U3.ve      7.347E-11
    X_U3.vlim    4.060E-02
    X_U3.vlp     1.142E-05
    X_U3.vln    -8.061E-11
    X_U4.vb      3.341E-08
    X_U4.vc      7.205E-11
    X_U4.ve      6.279E-13
    X_U4.vlim    6.675E-08
    X_U4.vlp    -4.000E-11
    X_U4.vln    -4.000E-11
    X_U5.vb      3.484E-08
    X_U5.vc      7.363E-11
    X_U5.ve     -1.258E-08
    X_U5.vlim    4.474E-04
    X_U5.vlp    -3.955E-11
    X_U5.vln    -4.045E-11
    X_U6.vb      1.604E-06
    X_U6.vc      7.400E-11
    X_U6.ve     -1.663E-02
    X_U6.vlim   -1.357E-02
    X_U6.vlp    -5.357E-11
    X_U6.vln    -2.644E-11

    TOTAL POWER DISSIPATION  -9.00E-01  WATTS


**** 05/20/23 21:44:11 **** PSpice 22.1.0 (6 October 2022) **** ID# 0 ********

 ** Profile: "SCHEMATIC1-test"  [ E:\Tehnici CAD\proiect\proiectcad_sabauradubogdan-pspicefiles\schematic1\test.sim ] 


 ****     INITIAL TRANSIENT SOLUTION       TEMPERATURE =   27.000 DEG C

 ****     CURRENT STEP                     PARAM R =   24.0000E+03

                      MONTE CARLO PASS 2

******************************************************************************



 NODE   VOLTAGE     NODE   VOLTAGE     NODE   VOLTAGE     NODE   VOLTAGE


(   V+)  -13.5200  (   V-) -240.2500  (  OUT)     .0969  (  VCC)   12.0000      

( -VCC)  -12.0000  (N00365) -240.0300 (N00401)  -13.7030 (N00482)-90.46E-06     

(N00763)   -9.9341 (N01182)  -11.8160 (N01288) -240.0600 (N01426)   -1.3360     

(N03994)   11.2430 (N04230)   11.8580 (N04234)   11.8500 (N05088)  -11.8030     

(N09209)  -41.1160 (N09213) -208.3200 (N09549)   -2.0231 (N13651)    -.6389     

(X_U1.6)    1.3838 (X_U1.7)  -13.8460 (X_U1.8)  -13.8460 (X_U1.9)    0.0000     

(X_U3.6) -240.7700 (X_U3.7)  -11.6650 (X_U3.8)  -11.6650 (X_U3.9)    0.0000     

(X_U4.6)  215.8000 (X_U4.7) -242.1000 (X_U4.8) -242.1000 (X_U4.9)    0.0000     

(X_U5.6)   54.3730 (X_U5.7) -242.0600 (X_U5.8) -242.0600 (X_U5.9)    0.0000     

(X_U6.6)  202.8700 (X_U6.7)  -43.1530 (X_U6.8)  -43.1530 (X_U6.9)    0.0000     

(X_U1.10)  -14.3390                   (X_U1.11)   11.9260                       

(X_U1.12)   12.0000                   (X_U1.13)  -14.3130                       

(X_U1.14)  -14.3390                   (X_U1.53)   11.0000                       

(X_U1.54)  -11.0000                   (X_U1.90)  -40.6030                       

(X_U1.91)   40.0000                   (X_U1.92)  -40.0000                       

(X_U1.99)    0.0000                   (X_U3.10)    -.7886                       

(X_U3.11)    -.7432                   (X_U3.12)  -13.5200                       

(X_U3.13)    -.7432                   (X_U3.14)    -.7886                       

(X_U3.53)  -14.5200                   (X_U3.54) -239.2500                       

(X_U3.90)   40.7470                   (X_U3.91)   40.0000                       

(X_U3.92)  -40.0000                   (X_U3.99) -126.8800                       

(X_U4.10)   -2.1215                   (X_U4.11)  -13.5200                       

(X_U4.12)   -2.0763                   (X_U4.13)   -2.1215                       

(X_U4.14)   -2.0763                   (X_U4.53)  -14.5200                       

(X_U4.54) -239.2500                   (X_U4.90)  -40.7440                       

(X_U4.91)   40.0000                   (X_U4.92)  -40.0000                       

(X_U4.99) -126.8800                   (X_U5.10)  -10.6840                       

(X_U5.11)  -13.5200                   (X_U5.12)  -10.6400                       

(X_U5.13)  -10.6840                   (X_U5.14)  -10.6400                       

(X_U5.53)  -14.5200                   (X_U5.54) -239.2500                       

(X_U5.90)  -40.7070                   (X_U5.91)   40.0000                       

(X_U5.92)  -40.0000                   (X_U5.99) -126.8800                       

(X_U6.10)   -2.8070                   (X_U6.11)  -13.5200                       

(X_U6.12)   -2.7618                   (X_U6.13)   -2.8070                       

(X_U6.14)   -2.7619                   (X_U6.53)  -14.5200                       

(X_U6.54) -239.2500                   (X_U6.90)  -40.7420                       

(X_U6.91)   40.0000                   (X_U6.92)  -40.0000                       

(X_U6.99) -126.8800                   




    VOLTAGE SOURCE CURRENTS
    NAME         CURRENT

    V_VCC       -1.655E-02
    V_-VCC      -3.885E-02
    X_U1.vb      1.384E-05
    X_U1.vc      7.215E-11
    X_U1.ve     -4.019E-02
    X_U1.vlim   -4.060E-02
    X_U1.vlp    -2.549E-10
    X_U1.vln     1.064E-05
    X_U3.vb     -2.408E-03
    X_U3.vc     -4.280E-02
    X_U3.ve      7.182E-10
    X_U3.vlim    4.075E-02
    X_U3.vlp     2.550E-03
    X_U3.vln    -2.553E-10
    X_U4.vb      2.158E-03
    X_U4.vc      7.132E-10
    X_U4.ve     -4.074E-02
    X_U4.vlim   -4.074E-02
    X_U4.vlp    -2.553E-10
    X_U4.vln     2.285E-03
    X_U5.vb      5.437E-04
    X_U5.vc      7.131E-10
    X_U5.ve     -9.256E-03
    X_U5.vlim   -4.071E-02
    X_U5.vlp    -2.552E-10
    X_U5.vln     5.758E-04
    X_U6.vb      2.029E-03
    X_U6.vc      8.410E-11
    X_U6.ve      6.316E-10
    X_U6.vlim   -4.074E-02
    X_U6.vlp    -2.553E-10
    X_U6.vln     2.153E-03

    TOTAL POWER DISSIPATION  -4.38E-01  WATTS


**** 05/20/23 21:44:11 **** PSpice 22.1.0 (6 October 2022) **** ID# 0 ********

 ** Profile: "SCHEMATIC1-test"  [ E:\Tehnici CAD\proiect\proiectcad_sabauradubogdan-pspicefiles\schematic1\test.sim ] 


 ****     INITIAL TRANSIENT SOLUTION       TEMPERATURE =   27.000 DEG C

 ****     CURRENT STEP                     PARAM R =   24.0000E+03

                      MONTE CARLO PASS 3

******************************************************************************



 NODE   VOLTAGE     NODE   VOLTAGE     NODE   VOLTAGE     NODE   VOLTAGE


(   V+)  -13.7450  (   V-) -241.1300  (  OUT)     .0976  (  VCC)   12.0000      

( -VCC)  -12.0000  (N00365) -240.9100 (N00401)  -13.9270 (N00482)-90.65E-06     

(N00763)  -10.1430 (N01182)  -11.8160 (N01288) -240.9500 (N01426)   -1.4299     

(N03994)   11.2460 (N04230)   11.8600 (N04234)   11.8520 (N05088)  -11.8030     

(N09209)  -40.7070 (N09213) -209.4900 (N09549)   -2.1263 (N13651)    -.6382     

(X_U1.6)    1.3820 (X_U1.7)  -13.8460 (X_U1.8)  -13.8460 (X_U1.9)    0.0000     

(X_U3.6) -244.9900 (X_U3.7)  -11.8900 (X_U3.8)  -11.8900 (X_U3.9)    0.0000     

(X_U4.6)  218.2500 (X_U4.7) -242.9900 (X_U4.8) -242.9900 (X_U4.9)    0.0000     

(X_U5.6)   54.6550 (X_U5.7) -242.9500 (X_U5.8) -242.9500 (X_U5.9)    0.0000     

(X_U6.6)  205.1500 (X_U6.7)  -42.7440 (X_U6.8)  -42.7440 (X_U6.9)    0.0000     

(X_U1.10)  -14.5630                   (X_U1.11)   11.9260                       

(X_U1.12)   12.0000                   (X_U1.13)  -14.5370                       

(X_U1.14)  -14.5630                   (X_U1.53)   11.0000                       

(X_U1.54)  -11.0000                   (X_U1.90)  -40.6030                       

(X_U1.91)   40.0000                   (X_U1.92)  -40.0000                       

(X_U1.99)    0.0000                   (X_U3.10)    -.7891                       

(X_U3.11)    -.7437                   (X_U3.12)  -13.7450                       

(X_U3.13)    -.7437                   (X_U3.14)    -.7891                       

(X_U3.53)  -14.7450                   (X_U3.54) -240.1300                       

(X_U3.90)   40.7480                   (X_U3.91)   40.0000                       

(X_U3.92)  -40.0000                   (X_U3.99) -127.4400                       

(X_U4.10)   -2.2158                   (X_U4.11)  -13.7450                       

(X_U4.12)   -2.1705                   (X_U4.13)   -2.2158                       

(X_U4.14)   -2.1705                   (X_U4.53)  -14.7450                       

(X_U4.54) -240.1300                   (X_U4.90)  -40.7440                       

(X_U4.91)   40.0000                   (X_U4.92)  -40.0000                       

(X_U4.99) -127.4400                   (X_U5.10)  -10.8940                       

(X_U5.11)  -13.7450                   (X_U5.12)  -10.8490                       

(X_U5.13)  -10.8940                   (X_U5.14)  -10.8500                       

(X_U5.53)  -14.7450                   (X_U5.54) -240.1300                       

(X_U5.90)  -40.7070                   (X_U5.91)   40.0000                       

(X_U5.92)  -40.0000                   (X_U5.99) -127.4400                       

(X_U6.10)   -2.9106                   (X_U6.11)  -13.7450                       

(X_U6.12)   -2.8654                   (X_U6.13)   -2.9106                       

(X_U6.14)   -2.8654                   (X_U6.53)  -14.7450                       

(X_U6.54) -240.1300                   (X_U6.90)  -40.7430                       

(X_U6.91)   40.0000                   (X_U6.92)  -40.0000                       

(X_U6.99) -127.4400                   




    VOLTAGE SOURCE CURRENTS
    NAME         CURRENT

    V_VCC       -1.661E-02
    V_-VCC      -3.886E-02
    X_U1.vb      1.382E-05
    X_U1.vc      2.282E-11
    X_U1.ve     -4.019E-02
    X_U1.vlim   -4.060E-02
    X_U1.vlp    -8.060E-11
    X_U1.vln     1.063E-05
    X_U3.vb     -2.450E-03
    X_U3.vc     -4.286E-02
    X_U3.ve      2.591E-10
    X_U3.vlim    4.075E-02
    X_U3.vlp     2.595E-03
    X_U3.vln    -8.075E-11
    X_U4.vb      2.182E-03
    X_U4.vc      2.262E-10
    X_U4.ve     -4.074E-02
    X_U4.vlim   -4.074E-02
    X_U4.vlp    -8.075E-11
    X_U4.vln     2.311E-03
    X_U5.vb      5.465E-04
    X_U5.vc      2.262E-10
    X_U5.ve     -9.402E-03
    X_U5.vlim   -4.071E-02
    X_U5.vlp    -8.071E-11
    X_U5.vln     5.788E-04
    X_U6.vb      2.051E-03
    X_U6.vc      2.596E-11
    X_U6.ve      2.323E-10
    X_U6.vlim   -4.074E-02
    X_U6.vlp    -8.074E-11
    X_U6.vln     2.177E-03

    TOTAL POWER DISSIPATION  -4.41E-01  WATTS


**** 05/20/23 21:44:11 **** PSpice 22.1.0 (6 October 2022) **** ID# 0 ********

 ** Profile: "SCHEMATIC1-test"  [ E:\Tehnici CAD\proiect\proiectcad_sabauradubogdan-pspicefiles\schematic1\test.sim ] 


 ****     INITIAL TRANSIENT SOLUTION       TEMPERATURE =   27.000 DEG C

 ****     CURRENT STEP                     PARAM R =   24.0000E+03

                      MONTE CARLO PASS 4

******************************************************************************



 NODE   VOLTAGE     NODE   VOLTAGE     NODE   VOLTAGE     NODE   VOLTAGE


(   V+)  -13.7150  (   V-) -240.9100  (  OUT)     .0974  (  VCC)   12.0000      

( -VCC)  -12.0000  (N00365) -240.6900 (N00401)  -13.8970 (N00482)-90.59E-06     

(N00763)  -10.1360 (N01182)  -11.8160 (N01288) -240.7300 (N01426)   -1.4223     

(N03994)   11.2450 (N04230)   11.8590 (N04234)   11.8510 (N05088)  -11.8030     

(N09209)  -41.1370 (N09213) -209.5300 (N09549)   -2.0957 (N13651)    -.6384     

(X_U1.6)    1.3823 (X_U1.7)  -13.8460 (X_U1.8)  -13.8460 (X_U1.9)    0.0000     

(X_U3.6) -244.4300 (X_U3.7)  -11.8600 (X_U3.8)  -11.8600 (X_U3.9)    0.0000     

(X_U4.6)  217.8300 (X_U4.7) -242.7600 (X_U4.8) -242.7600 (X_U4.9)    0.0000     

(X_U5.6)   54.2310 (X_U5.7) -242.7200 (X_U5.8) -242.7200 (X_U5.9)    0.0000     

(X_U6.6)  205.1600 (X_U6.7)  -43.1740 (X_U6.8)  -43.1740 (X_U6.9)    0.0000     

(X_U1.10)  -14.5330                   (X_U1.11)   11.9260                       

(X_U1.12)   12.0000                   (X_U1.13)  -14.5070                       

(X_U1.14)  -14.5330                   (X_U1.53)   11.0000                       

(X_U1.54)  -11.0000                   (X_U1.90)  -40.6030                       

(X_U1.91)   40.0000                   (X_U1.92)  -40.0000                       

(X_U1.99)    0.0000                   (X_U3.10)    -.7891                       

(X_U3.11)    -.7436                   (X_U3.12)  -13.7150                       

(X_U3.13)    -.7436                   (X_U3.14)    -.7891                       

(X_U3.53)  -14.7150                   (X_U3.54) -239.9100                       

(X_U3.90)   40.7480                   (X_U3.91)   40.0000                       

(X_U3.92)  -40.0000                   (X_U3.99) -127.3100                       

(X_U4.10)   -2.2081                   (X_U4.11)  -13.7150                       

(X_U4.12)   -2.1629                   (X_U4.13)   -2.2081                       

(X_U4.14)   -2.1629                   (X_U4.53)  -14.7150                       

(X_U4.54) -239.9100                   (X_U4.90)  -40.7440                       

(X_U4.91)   40.0000                   (X_U4.92)  -40.0000                       

(X_U4.99) -127.3100                   (X_U5.10)  -10.8860                       

(X_U5.11)  -13.7150                   (X_U5.12)  -10.8410                       

(X_U5.13)  -10.8860                   (X_U5.14)  -10.8420                       

(X_U5.53)  -14.7150                   (X_U5.54) -239.9100                       

(X_U5.90)  -40.7070                   (X_U5.91)   40.0000                       

(X_U5.92)  -40.0000                   (X_U5.99) -127.3100                       

(X_U6.10)   -2.8799                   (X_U6.11)  -13.7150                       

(X_U6.12)   -2.8347                   (X_U6.13)   -2.8799                       

(X_U6.14)   -2.8348                   (X_U6.53)  -14.7150                       

(X_U6.54) -239.9100                   (X_U6.90)  -40.7430                       

(X_U6.91)   40.0000                   (X_U6.92)  -40.0000                       

(X_U6.99) -127.3100                   




    VOLTAGE SOURCE CURRENTS
    NAME         CURRENT

    V_VCC       -1.664E-02
    V_-VCC      -3.886E-02
    X_U1.vb      1.382E-05
    X_U1.vc      2.282E-11
    X_U1.ve     -4.019E-02
    X_U1.vlim   -4.060E-02
    X_U1.vlp    -8.060E-11
    X_U1.vln     1.063E-05
    X_U3.vb     -2.444E-03
    X_U3.vc     -4.283E-02
    X_U3.ve      2.589E-10
    X_U3.vlim    4.075E-02
    X_U3.vlp     2.589E-03
    X_U3.vln    -8.075E-11
    X_U4.vb      2.178E-03
    X_U4.vc      2.260E-10
    X_U4.ve     -4.074E-02
    X_U4.vlim   -4.074E-02
    X_U4.vlp    -8.075E-11
    X_U4.vln     2.307E-03
    X_U5.vb      5.423E-04
    X_U5.vc      2.260E-10
    X_U5.ve     -9.359E-03
    X_U5.vlim   -4.071E-02
    X_U5.vlp    -8.071E-11
    X_U5.vln     5.743E-04
    X_U6.vb      2.052E-03
    X_U6.vc      2.642E-11
    X_U6.ve      2.316E-10
    X_U6.vlim   -4.074E-02
    X_U6.vlp    -8.074E-11
    X_U6.vln     2.177E-03

    TOTAL POWER DISSIPATION  -4.40E-01  WATTS


**** 05/20/23 21:44:11 **** PSpice 22.1.0 (6 October 2022) **** ID# 0 ********

 ** Profile: "SCHEMATIC1-test"  [ E:\Tehnici CAD\proiect\proiectcad_sabauradubogdan-pspicefiles\schematic1\test.sim ] 


 ****     INITIAL TRANSIENT SOLUTION       TEMPERATURE =   27.000 DEG C

 ****     CURRENT STEP                     PARAM R =   24.0000E+03

                      MONTE CARLO PASS 5

******************************************************************************



 NODE   VOLTAGE     NODE   VOLTAGE     NODE   VOLTAGE     NODE   VOLTAGE


(   V+)  -13.4140  (   V-) -239.7600  (  OUT)     .0977  (  VCC)   12.0000      

( -VCC)  -12.0000  (N00365) -239.5400 (N00401)  -13.5960 (N00482)-90.38E-06     

(N00763)   -9.8887 (N01182)  -11.8160 (N01288) -239.5800 (N01426)   -1.3126     

(N03994)   11.2450 (N04230)   11.8590 (N04234)   11.8510 (N05088)  -11.8030     

(N09209)  -40.5180 (N09213) -208.1500 (N09549)   -2.0026 (N13651)    -.6381     

(X_U1.6)    1.3847 (X_U1.7)  -13.8460 (X_U1.8)  -13.8460 (X_U1.9)    0.0000     

(X_U3.6) -238.7700 (X_U3.7)  -11.5590 (X_U3.8)  -11.5590 (X_U3.9)    0.0000     

(X_U4.6)  214.2300 (X_U4.7) -241.6100 (X_U4.8) -241.6100 (X_U4.9)    0.0000     

(X_U5.6)   53.2260 (X_U5.7) -241.5700 (X_U5.8) -241.5700 (X_U5.9)    0.0000     

(X_U6.6)  201.2500 (X_U6.7)  -42.5560 (X_U6.8)  -42.5560 (X_U6.9)    0.0000     

(X_U1.10)  -14.2320                   (X_U1.11)   11.9260                       

(X_U1.12)   12.0000                   (X_U1.13)  -14.2060                       

(X_U1.14)  -14.2320                   (X_U1.53)   11.0000                       

(X_U1.54)  -11.0000                   (X_U1.90)  -40.6030                       

(X_U1.91)   40.0000                   (X_U1.92)  -40.0000                       

(X_U1.99)    0.0000                   (X_U3.10)    -.7884                       

(X_U3.11)    -.7430                   (X_U3.12)  -13.4140                       

(X_U3.13)    -.7430                   (X_U3.14)    -.7884                       

(X_U3.53)  -14.4140                   (X_U3.54) -238.7600                       

(X_U3.90)   40.7470                   (X_U3.91)   40.0000                       

(X_U3.92)  -40.0000                   (X_U3.99) -126.5900                       

(X_U4.10)   -2.0979                   (X_U4.11)  -13.4140                       

(X_U4.12)   -2.0527                   (X_U4.13)   -2.0979                       

(X_U4.14)   -2.0528                   (X_U4.53)  -14.4140                       

(X_U4.54) -238.7600                   (X_U4.90)  -40.7440                       

(X_U4.91)   40.0000                   (X_U4.92)  -40.0000                       

(X_U4.99) -126.5900                   (X_U5.10)  -10.6380                       

(X_U5.11)  -13.4140                   (X_U5.12)  -10.5940                       

(X_U5.13)  -10.6380                   (X_U5.14)  -10.5950                       

(X_U5.53)  -14.4140                   (X_U5.54) -238.7600                       

(X_U5.90)  -40.7060                   (X_U5.91)   40.0000                       

(X_U5.92)  -40.0000                   (X_U5.99) -126.5900                       

(X_U6.10)   -2.7863                   (X_U6.11)  -13.4140                       

(X_U6.12)   -2.7412                   (X_U6.13)   -2.7863                       

(X_U6.14)   -2.7412                   (X_U6.53)  -14.4140                       

(X_U6.54) -238.7600                   (X_U6.90)  -40.7420                       

(X_U6.91)   40.0000                   (X_U6.92)  -40.0000                       

(X_U6.99) -126.5900                   




    VOLTAGE SOURCE CURRENTS
    NAME         CURRENT

    V_VCC       -1.662E-02
    V_-VCC      -3.886E-02
    X_U1.vb      1.385E-05
    X_U1.vc      2.282E-11
    X_U1.ve     -4.019E-02
    X_U1.vlim   -4.060E-02
    X_U1.vlp    -8.060E-11
    X_U1.vln     1.065E-05
    X_U3.vb     -2.388E-03
    X_U3.vc     -4.278E-02
    X_U3.ve      2.578E-10
    X_U3.vlim    4.075E-02
    X_U3.vlp     2.529E-03
    X_U3.vln    -8.075E-11
    X_U4.vb      2.142E-03
    X_U4.vc      2.252E-10
    X_U4.ve     -4.074E-02
    X_U4.vlim   -4.074E-02
    X_U4.vlp    -8.074E-11
    X_U4.vln     2.269E-03
    X_U5.vb      5.323E-04
    X_U5.vc      2.251E-10
    X_U5.ve     -9.173E-03
    X_U5.vlim   -4.071E-02
    X_U5.vlp    -8.071E-11
    X_U5.vln     5.637E-04
    X_U6.vb      2.013E-03
    X_U6.vc      2.611E-11
    X_U6.ve      2.309E-10
    X_U6.vlim   -4.074E-02
    X_U6.vlp    -8.074E-11
    X_U6.vln     2.135E-03

    TOTAL POWER DISSIPATION  -4.34E-01  WATTS


**** 05/20/23 21:44:11 **** PSpice 22.1.0 (6 October 2022) **** ID# 0 ********

 ** Profile: "SCHEMATIC1-test"  [ E:\Tehnici CAD\proiect\proiectcad_sabauradubogdan-pspicefiles\schematic1\test.sim ] 


 ****     SORTED DEVIATIONS OF V(OUT)      TEMPERATURE =   27.000 DEG C

 ****     CURRENT STEP                     PARAM R =   24.0000E+03

                      MONTE CARLO SUMMARY

******************************************************************************





Mean Deviation =  -11.903
Sigma          =  327.8300E-06

 RUN                    MAX DEVIATION FROM NOMINAL

Pass    2               11.903  (36308.62 sigma)  lower  at T =  200.0000E-12
                        (    .8071% of Nominal)

Pass    4               11.903  (36306.82 sigma)  lower  at T =  200.0000E-12
                        (    .812 % of Nominal)

Pass    3               11.902  (36306.44 sigma)  lower  at T =  200.0000E-12
                        (    .8131% of Nominal)

Pass    5               11.902  (36305.97 sigma)  lower  at T =  200.0000E-12
                        (    .8143% of Nominal)


**** 05/20/23 21:44:11 **** PSpice 22.1.0 (6 October 2022) **** ID# 0 ********

 ** Profile: "SCHEMATIC1-test"  [ E:\Tehnici CAD\proiect\proiectcad_sabauradubogdan-pspicefiles\schematic1\test.sim ] 


 ****     INITIAL TRANSIENT SOLUTION       TEMPERATURE =   27.000 DEG C

 ****     CURRENT STEP                     PARAM R =   26.0000E+03

                      MONTE CARLO NOMINAL

******************************************************************************



 NODE   VOLTAGE     NODE   VOLTAGE     NODE   VOLTAGE     NODE   VOLTAGE


(   V+)   78.0530  (   V-)    2.8501  (  OUT)   12.0000  (  VCC)   12.0000      

( -VCC)  -12.0000  (N00365)    3.7031 (N00401)   77.8460 (N00482) 29.53E-06     

(N00763)    3.7016 (N01182)   11.8080 (N01288)    5.0038 (N01426)    5.0023     

(N03994)   11.2450 (N04230)   11.8590 (N04234)   11.8560 (N05088)     .4464     

(N09209)    3.0570 (N09213)    3.2190 (N09549)    3.0457 (N13651)   11.8080     

(X_U1.6)-1226.4000 (X_U1.7)   13.8480 (X_U1.8)   13.8480 (X_U1.9)    0.0000     

(X_U3.6)   -1.2385 (X_U3.7)   79.8770 (X_U3.8)   79.8770 (X_U3.9)    0.0000     

(X_U4.6)     .0033 (X_U4.7)    5.0038 (X_U4.8)    5.0038 (X_U4.9)    0.0000     

(X_U5.6)     .0035 (X_U5.7)    3.7273 (X_U5.8)    3.7273 (X_U5.9)    0.0000     

(X_U6.6)     .1604 (X_U6.7)    2.3786 (X_U6.8)    2.3786 (X_U6.9)    0.0000     

(X_U1.10)   77.0230                   (X_U1.11)   77.0610                       

(X_U1.12)   12.0000                   (X_U1.13)   77.0620                       

(X_U1.14)   77.0230                   (X_U1.53)   11.0000                       

(X_U1.54)  -11.0000                   (X_U1.90)   40.8000                       

(X_U1.91)   40.0000                   (X_U1.92)  -40.0000                       

(X_U1.99)    0.0000                   (X_U3.10)    2.5900                       

(X_U3.11)   78.0530                   (X_U3.12)   77.9890                       

(X_U3.13)    2.5900                   (X_U3.14)    2.6126                       

(X_U3.53)   77.0530                   (X_U3.54)    3.8501                       

(X_U3.90)   40.6050                   (X_U3.91)   40.0000                       

(X_U3.92)  -40.0000                   (X_U3.99)   40.4520                       

(X_U4.10)    4.4029                   (X_U4.11)   78.0200                       

(X_U4.12)   78.0210                   (X_U4.13)    4.4146                       

(X_U4.14)    4.4141                   (X_U4.53)   77.0530                       

(X_U4.54)    3.8500                   (X_U4.90) 66.75E-06                       

(X_U4.91)   40.0000                   (X_U4.92)  -40.0000                       

(X_U4.99)   40.4520                   (X_U5.10)    3.1025                       

(X_U5.11)   78.0200                   (X_U5.12)   78.0220                       

(X_U5.13)    3.1141                   (X_U5.14)    3.1136                       

(X_U5.53)   77.0530                   (X_U5.54)    3.8501                       

(X_U5.90)     .4842                   (X_U5.91)   40.0000                       

(X_U5.92)  -40.0000                   (X_U5.99)   40.4520                       

(X_U6.10)    2.4520                   (X_U6.11)   78.0160                       

(X_U6.12)   78.0260                   (X_U6.13)    2.4649                       

(X_U6.14)    2.4615                   (X_U6.53)   77.0530                       

(X_U6.54)    3.8501                   (X_U6.90)  -13.5680                       

(X_U6.91)   40.0000                   (X_U6.92)  -40.0000                       

(X_U6.99)   40.4520                   




    VOLTAGE SOURCE CURRENTS
    NAME         CURRENT

    V_VCC        3.818E-02
    V_-VCC       1.337E-03
    X_U1.vb     -1.226E-02
    X_U1.vc     -2.944E-02
    X_U1.ve      2.431E-11
    X_U1.vlim    4.080E-02
    X_U1.vlp     1.301E-02
    X_U1.vln    -8.080E-11
    X_U3.vb     -1.239E-05
    X_U3.vc     -1.661E-02
    X_U3.ve      7.347E-11
    X_U3.vlim    4.060E-02
    X_U3.vlp     1.144E-05
    X_U3.vln    -8.061E-11
    X_U4.vb      3.341E-08
    X_U4.vc      7.205E-11
    X_U4.ve      6.277E-13
    X_U4.vlim    6.675E-08
    X_U4.vlp    -4.000E-11
    X_U4.vln    -4.000E-11
    X_U5.vb      3.457E-08
    X_U5.vc      7.335E-11
    X_U5.ve     -9.418E-13
    X_U5.vlim    4.842E-04
    X_U5.vlp    -3.952E-11
    X_U5.vln    -4.049E-11
    X_U6.vb      1.604E-06
    X_U6.vc      7.400E-11
    X_U6.ve     -1.663E-02
    X_U6.vlim   -1.357E-02
    X_U6.vlp    -5.357E-11
    X_U6.vln    -2.644E-11

    TOTAL POWER DISSIPATION  -9.00E-01  WATTS


**** 05/20/23 21:44:11 **** PSpice 22.1.0 (6 October 2022) **** ID# 0 ********

 ** Profile: "SCHEMATIC1-test"  [ E:\Tehnici CAD\proiect\proiectcad_sabauradubogdan-pspicefiles\schematic1\test.sim ] 


 ****     INITIAL TRANSIENT SOLUTION       TEMPERATURE =   27.000 DEG C

 ****     CURRENT STEP                     PARAM R =   26.0000E+03

                      MONTE CARLO PASS 2

******************************************************************************



 NODE   VOLTAGE     NODE   VOLTAGE     NODE   VOLTAGE     NODE   VOLTAGE


(   V+)   78.0960  (   V-)    2.8400  (  OUT)   12.0000  (  VCC)   12.0000      

( -VCC)  -12.0000  (N00365)    3.7137 (N00401)   77.8890 (N00482) 29.41E-06     

(N00763)    3.7121 (N01182)   11.8080 (N01288)    5.0373 (N01426)    5.0358     

(N03994)   11.2440 (N04230)   11.8580 (N04234)   11.8550 (N05088)     .4458     

(N09209)    3.0468 (N09213)    3.2230 (N09549)    3.0356 (N13651)   11.8080     

(X_U1.6)-1227.2000 (X_U1.7)   13.8480 (X_U1.8)   13.8480 (X_U1.9)    0.0000     

(X_U3.6)   -1.2384 (X_U3.7)   79.9190 (X_U3.8)   79.9190 (X_U3.9)    0.0000     

(X_U4.6)     .0033 (X_U4.7)    5.0373 (X_U4.8)    5.0373 (X_U4.9)    0.0000     

(X_U5.6)     .0035 (X_U5.7)    3.7380 (X_U5.8)    3.7380 (X_U5.9)    0.0000     

(X_U6.6)     .1605 (X_U6.7)    2.3660 (X_U6.8)    2.3660 (X_U6.9)    0.0000     

(X_U1.10)   77.0660                   (X_U1.11)   77.1040                       

(X_U1.12)   12.0000                   (X_U1.13)   77.1040                       

(X_U1.14)   77.0660                   (X_U1.53)   11.0000                       

(X_U1.54)  -11.0000                   (X_U1.90)   40.8000                       

(X_U1.91)   40.0000                   (X_U1.92)  -40.0000                       

(X_U1.99)    0.0000                   (X_U3.10)    2.5941                       

(X_U3.11)   78.0960                   (X_U3.12)   78.0310                       

(X_U3.13)    2.5941                   (X_U3.14)    2.6166                       

(X_U3.53)   77.0960                   (X_U3.54)    3.8400                       

(X_U3.90)   40.6050                   (X_U3.91)   40.0000                       

(X_U3.92)  -40.0000                   (X_U3.99)   40.4680                       

(X_U4.10)    4.4364                   (X_U4.11)   78.0630                       

(X_U4.12)   78.0640                   (X_U4.13)    4.4481                       

(X_U4.14)    4.4476                   (X_U4.53)   77.0960                       

(X_U4.54)    3.8400                   (X_U4.90) 66.42E-06                       

(X_U4.91)   40.0000                   (X_U4.92)  -40.0000                       

(X_U4.99)   40.4680                   (X_U5.10)    3.1130                       

(X_U5.11)   78.0630                   (X_U5.12)   78.0640                       

(X_U5.13)    3.1246                   (X_U5.14)    3.1241                       

(X_U5.53)   77.0960                   (X_U5.54)    3.8400                       

(X_U5.90)     .4868                   (X_U5.91)   40.0000                       

(X_U5.92)  -40.0000                   (X_U5.99)   40.4680                       

(X_U6.10)    2.4418                   (X_U6.11)   78.0590                       

(X_U6.12)   78.0690                   (X_U6.13)    2.4548                       

(X_U6.14)    2.4514                   (X_U6.53)   77.0960                       

(X_U6.54)    3.8400                   (X_U6.90)  -13.6180                       

(X_U6.91)   40.0000                   (X_U6.92)  -40.0000                       

(X_U6.99)   40.4680                   




    VOLTAGE SOURCE CURRENTS
    NAME         CURRENT

    V_VCC        3.826E-02
    V_-VCC       1.337E-03
    X_U1.vb     -1.227E-02
    X_U1.vc     -2.952E-02
    X_U1.ve      7.236E-11
    X_U1.vlim    4.080E-02
    X_U1.vlp     1.302E-02
    X_U1.vln    -2.555E-10
    X_U3.vb     -1.238E-05
    X_U3.vc     -1.663E-02
    X_U3.ve      2.341E-10
    X_U3.vlim    4.060E-02
    X_U3.vlp     1.143E-05
    X_U3.vln    -2.549E-10
    X_U4.vb      3.339E-08
    X_U4.vc      2.279E-10
    X_U4.ve      3.707E-12
    X_U4.vlim    6.642E-08
    X_U4.vlp    -1.265E-10
    X_U4.vln    -1.265E-10
    X_U5.vb      3.457E-08
    X_U5.vc      2.321E-10
    X_U5.ve     -5.951E-13
    X_U5.vlim    4.868E-04
    X_U5.vlp    -1.250E-10
    X_U5.vln    -1.280E-10
    X_U6.vb      1.605E-06
    X_U6.vc      2.342E-10
    X_U6.ve     -1.664E-02
    X_U6.vlim   -1.362E-02
    X_U6.vlp    -1.696E-10
    X_U6.vln    -8.343E-11

    TOTAL POWER DISSIPATION  -9.01E-01  WATTS


**** 05/20/23 21:44:11 **** PSpice 22.1.0 (6 October 2022) **** ID# 0 ********

 ** Profile: "SCHEMATIC1-test"  [ E:\Tehnici CAD\proiect\proiectcad_sabauradubogdan-pspicefiles\schematic1\test.sim ] 


 ****     INITIAL TRANSIENT SOLUTION       TEMPERATURE =   27.000 DEG C

 ****     CURRENT STEP                     PARAM R =   26.0000E+03

                      MONTE CARLO PASS 3

******************************************************************************



 NODE   VOLTAGE     NODE   VOLTAGE     NODE   VOLTAGE     NODE   VOLTAGE


(   V+)   77.9110  (   V-)    2.8575  (  OUT)   12.0000  (  VCC)   12.0000      

( -VCC)  -12.0000  (N00365)    3.6418 (N00401)   77.7040 (N00482) 29.67E-06     

(N00763)    3.6403 (N01182)   11.8080 (N01288)    4.9905 (N01426)    4.9890     

(N03994)   11.2460 (N04230)   11.8610 (N04234)   11.8570 (N05088)     .4469     

(N09209)    3.0644 (N09213)    3.1667 (N09549)    3.0532 (N13651)   11.8080     

(X_U1.6)-1223.7000 (X_U1.7)   13.8480 (X_U1.8)   13.8480 (X_U1.9)    0.0000     

(X_U3.6)   -1.2386 (X_U3.7)   79.7340 (X_U3.8)   79.7340 (X_U3.9)    0.0000     

(X_U4.6)     .0033 (X_U4.7)    4.9905 (X_U4.8)    4.9905 (X_U4.9)    0.0000     

(X_U5.6)     .0035 (X_U5.7)    3.6655 (X_U5.8)    3.6655 (X_U5.9)    0.0000     

(X_U6.6)     .1601 (X_U6.7)    2.3881 (X_U6.8)    2.3881 (X_U6.9)    0.0000     

(X_U1.10)   76.8800                   (X_U1.11)   76.9190                       

(X_U1.12)   12.0000                   (X_U1.13)   76.9190                       

(X_U1.14)   76.8800                   (X_U1.53)   11.0000                       

(X_U1.54)  -11.0000                   (X_U1.90)   40.8000                       

(X_U1.91)   40.0000                   (X_U1.92)  -40.0000                       

(X_U1.99)    0.0000                   (X_U3.10)    2.5377                       

(X_U3.11)   77.9110                   (X_U3.12)   77.8460                       

(X_U3.13)    2.5377                   (X_U3.14)    2.5603                       

(X_U3.53)   76.9110                   (X_U3.54)    3.8575                       

(X_U3.90)   40.6050                   (X_U3.91)   40.0000                       

(X_U3.92)  -40.0000                   (X_U3.99)   40.3840                       

(X_U4.10)    4.3896                   (X_U4.11)   77.8770                       

(X_U4.12)   77.8790                   (X_U4.13)    4.4013                       

(X_U4.14)    4.4008                   (X_U4.53)   76.9110                       

(X_U4.54)    3.8575                   (X_U4.90) 66.77E-06                       

(X_U4.91)   40.0000                   (X_U4.92)  -40.0000                       

(X_U4.99)   40.3840                   (X_U5.10)    3.0412                       

(X_U5.11)   77.8780                   (X_U5.12)   77.8790                       

(X_U5.13)    3.0528                   (X_U5.14)    3.0523                       

(X_U5.53)   76.9110                   (X_U5.54)    3.8575                       

(X_U5.90)     .4734                   (X_U5.91)   40.0000                       

(X_U5.92)  -40.0000                   (X_U5.99)   40.3840                       

(X_U6.10)    2.4594                   (X_U6.11)   77.8730                       

(X_U6.12)   77.8830                   (X_U6.13)    2.4723                       

(X_U6.14)    2.4689                   (X_U6.53)   76.9110                       

(X_U6.54)    3.8575                   (X_U6.90)  -13.5250                       

(X_U6.91)   40.0000                   (X_U6.92)  -40.0000                       

(X_U6.99)   40.3840                   




    VOLTAGE SOURCE CURRENTS
    NAME         CURRENT

    V_VCC        3.810E-02
    V_-VCC       1.337E-03
    X_U1.vb     -1.224E-02
    X_U1.vc     -2.939E-02
    X_U1.ve      2.431E-11
    X_U1.vlim    4.080E-02
    X_U1.vlp     1.298E-02
    X_U1.vln    -8.080E-11
    X_U3.vb     -1.239E-05
    X_U3.vc     -1.658E-02
    X_U3.ve      7.332E-11
    X_U3.vlim    4.060E-02
    X_U3.vlp     1.144E-05
    X_U3.vln    -8.061E-11
    X_U4.vb      3.336E-08
    X_U4.vc      7.192E-11
    X_U4.ve      6.059E-13
    X_U4.vlim    6.677E-08
    X_U4.vlp    -4.000E-11
    X_U4.vln    -4.000E-11
    X_U5.vb      3.456E-08
    X_U5.vc      7.327E-11
    X_U5.ve     -3.391E-12
    X_U5.vlim    4.734E-04
    X_U5.vlp    -3.953E-11
    X_U5.vln    -4.048E-11
    X_U6.vb      1.601E-06
    X_U6.vc      7.385E-11
    X_U6.ve     -1.659E-02
    X_U6.vlim   -1.353E-02
    X_U6.vlp    -5.353E-11
    X_U6.vln    -2.648E-11

    TOTAL POWER DISSIPATION  -8.98E-01  WATTS


**** 05/20/23 21:44:11 **** PSpice 22.1.0 (6 October 2022) **** ID# 0 ********

 ** Profile: "SCHEMATIC1-test"  [ E:\Tehnici CAD\proiect\proiectcad_sabauradubogdan-pspicefiles\schematic1\test.sim ] 


 ****     INITIAL TRANSIENT SOLUTION       TEMPERATURE =   27.000 DEG C

 ****     CURRENT STEP                     PARAM R =   26.0000E+03

                      MONTE CARLO PASS 4

******************************************************************************



 NODE   VOLTAGE     NODE   VOLTAGE     NODE   VOLTAGE     NODE   VOLTAGE


(   V+)   78.1510  (   V-)    2.8596  (  OUT)   12.0000  (  VCC)   12.0000      

( -VCC)  -12.0000  (N00365)    3.7159 (N00401)   77.9440 (N00482) 29.41E-06     

(N00763)    3.7143 (N01182)   11.8080 (N01288)    5.0040 (N01426)    5.0025     

(N03994)   11.2450 (N04230)   11.8600 (N04234)   11.8560 (N05088)     .4463     

(N09209)    3.0665 (N09213)    3.2347 (N09549)    3.0552 (N13651)   11.8080     

(X_U1.6)-1228.2000 (X_U1.7)   13.8480 (X_U1.8)   13.8480 (X_U1.9)    0.0000     

(X_U3.6)   -1.2383 (X_U3.7)   79.9740 (X_U3.8)   79.9740 (X_U3.9)    0.0000     

(X_U4.6)     .0033 (X_U4.7)    5.0040 (X_U4.8)    5.0040 (X_U4.9)    0.0000     

(X_U5.6)     .0035 (X_U5.7)    3.7401 (X_U5.8)    3.7401 (X_U5.9)    0.0000     

(X_U6.6)     .1606 (X_U6.7)    2.3861 (X_U6.8)    2.3861 (X_U6.9)    0.0000     

(X_U1.10)   77.1200                   (X_U1.11)   77.1590                       

(X_U1.12)   12.0000                   (X_U1.13)   77.1590                       

(X_U1.14)   77.1200                   (X_U1.53)   11.0000                       

(X_U1.54)  -11.0000                   (X_U1.90)   40.8000                       

(X_U1.91)   40.0000                   (X_U1.92)  -40.0000                       

(X_U1.99)    0.0000                   (X_U3.10)    2.6058                       

(X_U3.11)   78.1510                   (X_U3.12)   78.0860                       

(X_U3.13)    2.6058                   (X_U3.14)    2.6283                       

(X_U3.53)   77.1510                   (X_U3.54)    3.8596                       

(X_U3.90)   40.6050                   (X_U3.91)   40.0000                       

(X_U3.92)  -40.0000                   (X_U3.99)   40.5050                       

(X_U4.10)    4.4031                   (X_U4.11)   78.1170                       

(X_U4.12)   78.1190                   (X_U4.13)    4.4147                       

(X_U4.14)    4.4143                   (X_U4.53)   77.1510                       

(X_U4.54)    3.8596                   (X_U4.90) 66.73E-06                       

(X_U4.91)   40.0000                   (X_U4.92)  -40.0000                       

(X_U4.99)   40.5050                   (X_U5.10)    3.1153                       

(X_U5.11)   78.1180                   (X_U5.12)   78.1190                       

(X_U5.13)    3.1268                   (X_U5.14)    3.1264                       

(X_U5.53)   77.1510                   (X_U5.54)    3.8596                       

(X_U5.90)     .4841                   (X_U5.91)   40.0000                       

(X_U5.92)  -40.0000                   (X_U5.99)   40.5050                       

(X_U6.10)    2.4614                   (X_U6.11)   78.1140                       

(X_U6.12)   78.1230                   (X_U6.13)    2.4744                       

(X_U6.14)    2.4710                   (X_U6.53)   77.1510                       

(X_U6.54)    3.8596                   (X_U6.90)  -13.6070                       

(X_U6.91)   40.0000                   (X_U6.92)  -40.0000                       

(X_U6.99)   40.5050                   




    VOLTAGE SOURCE CURRENTS
    NAME         CURRENT

    V_VCC        3.821E-02
    V_-VCC       1.337E-03
    X_U1.vb     -1.228E-02
    X_U1.vc     -2.945E-02
    X_U1.ve      2.431E-11
    X_U1.vlim    4.080E-02
    X_U1.vlp     1.303E-02
    X_U1.vln    -8.080E-11
    X_U3.vb     -1.238E-05
    X_U3.vc     -1.663E-02
    X_U3.ve      7.356E-11
    X_U3.vlim    4.060E-02
    X_U3.vlp     1.143E-05
    X_U3.vln    -8.061E-11
    X_U4.vb      3.346E-08
    X_U4.vc      7.215E-11
    X_U4.ve      6.169E-13
    X_U4.vlim    6.673E-08
    X_U4.vlp    -4.000E-11
    X_U4.vln    -4.000E-11
    X_U5.vb      3.460E-08
    X_U5.vc      7.344E-11
    X_U5.ve     -6.549E-13
    X_U5.vlim    4.841E-04
    X_U5.vlp    -3.952E-11
    X_U5.vln    -4.049E-11
    X_U6.vb      1.606E-06
    X_U6.vc      7.408E-11
    X_U6.ve     -1.664E-02
    X_U6.vlim   -1.361E-02
    X_U6.vlp    -5.361E-11
    X_U6.vln    -2.640E-11

    TOTAL POWER DISSIPATION  -9.01E-01  WATTS


**** 05/20/23 21:44:11 **** PSpice 22.1.0 (6 October 2022) **** ID# 0 ********

 ** Profile: "SCHEMATIC1-test"  [ E:\Tehnici CAD\proiect\proiectcad_sabauradubogdan-pspicefiles\schematic1\test.sim ] 


 ****     INITIAL TRANSIENT SOLUTION       TEMPERATURE =   27.000 DEG C

 ****     CURRENT STEP                     PARAM R =   26.0000E+03

                      MONTE CARLO PASS 5

******************************************************************************



 NODE   VOLTAGE     NODE   VOLTAGE     NODE   VOLTAGE     NODE   VOLTAGE


(   V+)   78.1490  (   V-)    2.8678  (  OUT)   12.0000  (  VCC)   12.0000      

( -VCC)  -12.0000  (N00365)    3.7189 (N00401)   77.9420 (N00482) 29.53E-06     

(N00763)    3.7174 (N01182)   11.8080 (N01288)    4.9824 (N01426)    4.9809     

(N03994)   11.2450 (N04230)   11.8590 (N04234)   11.8560 (N05088)     .4458     

(N09209)    3.0746 (N09213)    3.2314 (N09549)    3.0633 (N13651)   11.8080     

(X_U1.6)-1228.2000 (X_U1.7)   13.8480 (X_U1.8)   13.8480 (X_U1.9)    0.0000     

(X_U3.6)   -1.2382 (X_U3.7)   79.9720 (X_U3.8)   79.9720 (X_U3.9)    0.0000     

(X_U4.6)     .0033 (X_U4.7)    4.9824 (X_U4.8)    4.9824 (X_U4.9)    0.0000     

(X_U5.6)     .0035 (X_U5.7)    3.7434 (X_U5.8)    3.7434 (X_U5.9)    0.0000     

(X_U6.6)     .1606 (X_U6.7)    2.3971 (X_U6.8)    2.3971 (X_U6.9)    0.0000     

(X_U1.10)   77.1180                   (X_U1.11)   77.1570                       

(X_U1.12)   12.0000                   (X_U1.13)   77.1570                       

(X_U1.14)   77.1180                   (X_U1.53)   11.0000                       

(X_U1.54)  -11.0000                   (X_U1.90)   40.8000                       

(X_U1.91)   40.0000                   (X_U1.92)  -40.0000                       

(X_U1.99)    0.0000                   (X_U3.10)    2.6025                       

(X_U3.11)   78.1490                   (X_U3.12)   78.0840                       

(X_U3.13)    2.6025                   (X_U3.14)    2.6251                       

(X_U3.53)   77.1490                   (X_U3.54)    3.8678                       

(X_U3.90)   40.6050                   (X_U3.91)   40.0000                       

(X_U3.92)  -40.0000                   (X_U3.99)   40.5080                       

(X_U4.10)    4.3815                   (X_U4.11)   78.1150                       

(X_U4.12)   78.1170                   (X_U4.13)    4.3932                       

(X_U4.14)    4.3927                   (X_U4.53)   77.1490                       

(X_U4.54)    3.8678                   (X_U4.90) 66.72E-06                       

(X_U4.91)   40.0000                   (X_U4.92)  -40.0000                       

(X_U4.99)   40.5080                   (X_U5.10)    3.1183                       

(X_U5.11)   78.1160                   (X_U5.12)   78.1170                       

(X_U5.13)    3.1299                   (X_U5.14)    3.1294                       

(X_U5.53)   77.1490                   (X_U5.54)    3.8678                       

(X_U5.90)     .4897                   (X_U5.91)   40.0000                       

(X_U5.92)  -40.0000                   (X_U5.99)   40.5080                       

(X_U6.10)    2.4696                   (X_U6.11)   78.1120                       

(X_U6.12)   78.1210                   (X_U6.13)    2.4825                       

(X_U6.14)    2.4791                   (X_U6.53)   77.1490                       

(X_U6.54)    3.8678                   (X_U6.90)  -13.5510                       

(X_U6.91)   40.0000                   (X_U6.92)  -40.0000                       

(X_U6.99)   40.5080                   




    VOLTAGE SOURCE CURRENTS
    NAME         CURRENT

    V_VCC        3.827E-02
    V_-VCC       1.337E-03
    X_U1.vb     -1.228E-02
    X_U1.vc     -2.952E-02
    X_U1.ve      2.431E-11
    X_U1.vlim    4.080E-02
    X_U1.vlp     1.303E-02
    X_U1.vln    -8.080E-11
    X_U3.vb     -1.238E-05
[...]
    X_U5.ve      1.684E-13
    X_U5.vlim    5.943E-04
    X_U5.vlp    -3.941E-11
    X_U5.vln    -4.060E-11
    X_U6.vb      1.604E-06
    X_U6.vc      7.400E-11
    X_U6.ve     -1.663E-02
    X_U6.vlim   -1.357E-02
    X_U6.vlp    -5.357E-11
    X_U6.vln    -2.644E-11

    TOTAL POWER DISSIPATION  -9.00E-01  WATTS


**** 05/20/23 21:44:11 **** PSpice 22.1.0 (6 October 2022) **** ID# 0 ********

 ** Profile: "SCHEMATIC1-test"  [ E:\Tehnici CAD\proiect\proiectcad_sabauradubogdan-pspicefiles\schematic1\test.sim ] 


 ****     INITIAL TRANSIENT SOLUTION       TEMPERATURE =   27.000 DEG C

 ****     CURRENT STEP                     PARAM R =   32.0000E+03

                      MONTE CARLO PASS 2

******************************************************************************



 NODE   VOLTAGE     NODE   VOLTAGE     NODE   VOLTAGE     NODE   VOLTAGE


(   V+)   78.0960  (   V-)    2.8400  (  OUT)   12.0000  (  VCC)   12.0000      

( -VCC)  -12.0000  (N00365)    4.5576 (N00401)   77.8890 (N00482) 29.41E-06     

(N00763)    4.5561 (N01182)   11.8080 (N01288)    5.0373 (N01426)    5.0358     

(N03994)   11.2440 (N04230)   11.8580 (N04234)   11.8550 (N05088)     .4458     

(N09209)    3.0468 (N09213)    3.9555 (N09549)    3.0356 (N13651)   11.8080     

(X_U1.6)-1227.2000 (X_U1.7)   13.8480 (X_U1.8)   13.8480 (X_U1.9)    0.0000     

(X_U3.6)   -1.2435 (X_U3.7)   79.9190 (X_U3.8)   79.9190 (X_U3.9)    0.0000     

(X_U4.6)     .0033 (X_U4.7)    5.0373 (X_U4.8)    5.0373 (X_U4.9)    0.0000     

(X_U5.6)     .0034 (X_U5.7)    4.5875 (X_U5.8)    4.5875 (X_U5.9)    0.0000     

(X_U6.6)     .1605 (X_U6.7)    2.3660 (X_U6.8)    2.3660 (X_U6.9)    0.0000     

(X_U1.10)   77.0660                   (X_U1.11)   77.1040                       

(X_U1.12)   12.0000                   (X_U1.13)   77.1040                       

(X_U1.14)   77.0660                   (X_U1.53)   11.0000                       

(X_U1.54)  -11.0000                   (X_U1.90)   40.8000                       

(X_U1.91)   40.0000                   (X_U1.92)  -40.0000                       

(X_U1.99)    0.0000                   (X_U3.10)    3.3263                       

(X_U3.11)   78.0960                   (X_U3.12)   78.0310                       

(X_U3.13)    3.3263                   (X_U3.14)    3.3490                       

(X_U3.53)   77.0960                   (X_U3.54)    3.8400                       

(X_U3.90)   40.6050                   (X_U3.91)   40.0000                       

(X_U3.92)  -40.0000                   (X_U3.99)   40.4680                       

(X_U4.10)    4.4364                   (X_U4.11)   78.0630                       

(X_U4.12)   78.0640                   (X_U4.13)    4.4481                       

(X_U4.14)    4.4476                   (X_U4.53)   77.0960                       

(X_U4.54)    3.8400                   (X_U4.90) 66.76E-06                       

(X_U4.91)   40.0000                   (X_U4.92)  -40.0000                       

(X_U4.99)   40.4680                   (X_U5.10)    3.9568                       

(X_U5.11)   78.0630                   (X_U5.12)   78.0640                       

(X_U5.13)    3.9684                   (X_U5.14)    3.9679                       

(X_U5.53)   77.0960                   (X_U5.54)    3.8400                       

(X_U5.90)     .5974                   (X_U5.91)   40.0000                       

(X_U5.92)  -40.0000                   (X_U5.99)   40.4680                       

(X_U6.10)    2.4418                   (X_U6.11)   78.0590                       

(X_U6.12)   78.0690                   (X_U6.13)    2.4548                       

(X_U6.14)    2.4514                   (X_U6.53)   77.0960                       

(X_U6.54)    3.8400                   (X_U6.90)  -13.6180                       

(X_U6.91)   40.0000                   (X_U6.92)  -40.0000                       

(X_U6.99)   40.4680                   




    VOLTAGE SOURCE CURRENTS
    NAME         CURRENT

    V_VCC        3.826E-02
    V_-VCC       1.337E-03
    X_U1.vb     -1.227E-02
    X_U1.vc     -2.952E-02
    X_U1.ve      2.431E-11
    X_U1.vlim    4.080E-02
    X_U1.vlp     1.302E-02
    X_U1.vln    -8.080E-11
    X_U3.vb     -1.244E-05
    X_U3.vc     -1.663E-02
    X_U3.ve      7.352E-11
    X_U3.vlim    4.060E-02
    X_U3.vlp     1.149E-05
    X_U3.vln    -8.061E-11
    X_U4.vb      3.339E-08
    X_U4.vc      7.206E-11
    X_U4.ve      6.726E-13
    X_U4.vlim    6.676E-08
    X_U4.vlp    -4.000E-11
    X_U4.vln    -4.000E-11
    X_U5.vb      3.376E-08
    X_U5.vc      7.254E-11
    X_U5.ve      1.928E-13
    X_U5.vlim    5.974E-04
    X_U5.vlp    -3.940E-11
    X_U5.vln    -4.060E-11
    X_U6.vb      1.605E-06
    X_U6.vc      7.405E-11
    X_U6.ve     -1.664E-02
    X_U6.vlim   -1.362E-02
    X_U6.vlp    -5.362E-11
    X_U6.vln    -2.639E-11

    TOTAL POWER DISSIPATION  -9.01E-01  WATTS


**** 05/20/23 21:44:11 **** PSpice 22.1.0 (6 October 2022) **** ID# 0 ********

 ** Profile: "SCHEMATIC1-test"  [ E:\Tehnici CAD\proiect\proiectcad_sabauradubogdan-pspicefiles\schematic1\test.sim ] 


 ****     INITIAL TRANSIENT SOLUTION       TEMPERATURE =   27.000 DEG C

 ****     CURRENT STEP                     PARAM R =   32.0000E+03

                      MONTE CARLO PASS 3

******************************************************************************



 NODE   VOLTAGE     NODE   VOLTAGE     NODE   VOLTAGE     NODE   VOLTAGE


(   V+)   77.9110  (   V-)    2.8575  (  OUT)   12.0000  (  VCC)   12.0000      

( -VCC)  -12.0000  (N00365)    4.4696 (N00401)   77.7040 (N00482) 29.67E-06     

(N00763)    4.4680 (N01182)   11.8080 (N01288)    4.9905 (N01426)    4.9890     

(N03994)   11.2460 (N04230)   11.8610 (N04234)   11.8570 (N05088)     .4469     

(N09209)    3.0644 (N09213)    3.8864 (N09549)    3.0532 (N13651)   11.8080     

(X_U1.6)-1223.7000 (X_U1.7)   13.8480 (X_U1.8)   13.8480 (X_U1.9)    0.0000     

(X_U3.6)   -1.2436 (X_U3.7)   79.7340 (X_U3.8)   79.7340 (X_U3.9)    0.0000     

(X_U4.6)     .0033 (X_U4.7)    4.9905 (X_U4.8)    4.9905 (X_U4.9)    0.0000     

(X_U5.6)     .0034 (X_U5.7)    4.4986 (X_U5.8)    4.4986 (X_U5.9)    0.0000     

(X_U6.6)     .1601 (X_U6.7)    2.3881 (X_U6.8)    2.3881 (X_U6.9)    0.0000     

(X_U1.10)   76.8800                   (X_U1.11)   76.9190                       

(X_U1.12)   12.0000                   (X_U1.13)   76.9190                       

(X_U1.14)   76.8800                   (X_U1.53)   11.0000                       

(X_U1.54)  -11.0000                   (X_U1.90)   40.8000                       

(X_U1.91)   40.0000                   (X_U1.92)  -40.0000                       

(X_U1.99)    0.0000                   (X_U3.10)    3.2573                       

(X_U3.11)   77.9110                   (X_U3.12)   77.8460                       

(X_U3.13)    3.2573                   (X_U3.14)    3.2800                       

(X_U3.53)   76.9110                   (X_U3.54)    3.8575                       

(X_U3.90)   40.6050                   (X_U3.91)   40.0000                       

(X_U3.92)  -40.0000                   (X_U3.99)   40.3840                       

(X_U4.10)    4.3896                   (X_U4.11)   77.8770                       

(X_U4.12)   77.8790                   (X_U4.13)    4.4013                       

(X_U4.14)    4.4008                   (X_U4.53)   76.9110                       

(X_U4.54)    3.8575                   (X_U4.90) 66.77E-06                       

(X_U4.91)   40.0000                   (X_U4.92)  -40.0000                       

(X_U4.99)   40.3840                   (X_U5.10)    3.8688                       

(X_U5.11)   77.8770                   (X_U5.12)   77.8790                       

(X_U5.13)    3.8804                   (X_U5.14)    3.8799                       

(X_U5.53)   76.9110                   (X_U5.54)    3.8575                       

(X_U5.90)     .5810                   (X_U5.91)   40.0000                       

(X_U5.92)  -40.0000                   (X_U5.99)   40.3840                       

(X_U6.10)    2.4594                   (X_U6.11)   77.8730                       

(X_U6.12)   77.8830                   (X_U6.13)    2.4723                       

(X_U6.14)    2.4689                   (X_U6.53)   76.9110                       

(X_U6.54)    3.8575                   (X_U6.90)  -13.5250                       

(X_U6.91)   40.0000                   (X_U6.92)  -40.0000                       

(X_U6.99)   40.3840                   




    VOLTAGE SOURCE CURRENTS
    NAME         CURRENT

    V_VCC        3.810E-02
    V_-VCC       1.337E-03
    X_U1.vb     -1.224E-02
    X_U1.vc     -2.939E-02
    X_U1.ve      2.431E-11
    X_U1.vlim    4.080E-02
    X_U1.vlp     1.298E-02
    X_U1.vln    -8.080E-11
    X_U3.vb     -1.244E-05
    X_U3.vc     -1.658E-02
    X_U3.ve      7.332E-11
    X_U3.vlim    4.060E-02
    X_U3.vlp     1.149E-05
    X_U3.vln    -8.061E-11
    X_U4.vb      3.336E-08
    X_U4.vc      7.192E-11
    X_U4.ve      6.059E-13
    X_U4.vlim    6.677E-08
    X_U4.vlp    -4.000E-11
    X_U4.vln    -4.000E-11
    X_U5.vb      3.377E-08
    X_U5.vc      7.244E-11
    X_U5.ve      8.492E-14
    X_U5.vlim    5.810E-04
    X_U5.vlp    -3.942E-11
    X_U5.vln    -4.059E-11
    X_U6.vb      1.601E-06
    X_U6.vc      7.385E-11
    X_U6.ve     -1.659E-02
    X_U6.vlim   -1.353E-02
    X_U6.vlp    -5.353E-11
    X_U6.vln    -2.648E-11

    TOTAL POWER DISSIPATION  -8.98E-01  WATTS


**** 05/20/23 21:44:11 **** PSpice 22.1.0 (6 October 2022) **** ID# 0 ********

 ** Profile: "SCHEMATIC1-test"  [ E:\Tehnici CAD\proiect\proiectcad_sabauradubogdan-pspicefiles\schematic1\test.sim ] 


 ****     INITIAL TRANSIENT SOLUTION       TEMPERATURE =   27.000 DEG C

 ****     CURRENT STEP                     PARAM R =   32.0000E+03

                      MONTE CARLO PASS 4

******************************************************************************



 NODE   VOLTAGE     NODE   VOLTAGE     NODE   VOLTAGE     NODE   VOLTAGE


(   V+)   78.1510  (   V-)    2.8596  (  OUT)   12.0000  (  VCC)   12.0000      

( -VCC)  -12.0000  (N00365)    4.5603 (N00401)   77.9440 (N00482) 29.41E-06     

(N00763)    4.5587 (N01182)   11.8080 (N01288)    5.0040 (N01426)    5.0025     

(N03994)   11.2450 (N04230)   11.8600 (N04234)   11.8570 (N05088)     .4463     

(N09209)    3.0665 (N09213)    3.9697 (N09549)    3.0552 (N13651)   11.8080     

(X_U1.6)-1228.2000 (X_U1.7)   13.8480 (X_U1.8)   13.8480 (X_U1.9)    0.0000     

(X_U3.6)   -1.2433 (X_U3.7)   79.9740 (X_U3.8)   79.9740 (X_U3.9)    0.0000     

(X_U4.6)     .0033 (X_U4.7)    5.0040 (X_U4.8)    5.0040 (X_U4.9)    0.0000     

(X_U5.6)     .0034 (X_U5.7)    4.5900 (X_U5.8)    4.5900 (X_U5.9)    0.0000     

(X_U6.6)     .1606 (X_U6.7)    2.3861 (X_U6.8)    2.3861 (X_U6.9)    0.0000     

(X_U1.10)   77.1200                   (X_U1.11)   77.1590                       

(X_U1.12)   12.0000                   (X_U1.13)   77.1590                       

(X_U1.14)   77.1200                   (X_U1.53)   11.0000                       

(X_U1.54)  -11.0000                   (X_U1.90)   40.8000                       

(X_U1.91)   40.0000                   (X_U1.92)  -40.0000                       

(X_U1.99)    0.0000                   (X_U3.10)    3.3406                       

(X_U3.11)   78.1510                   (X_U3.12)   78.0860                       

(X_U3.13)    3.3406                   (X_U3.14)    3.3633                       

(X_U3.53)   77.1510                   (X_U3.54)    3.8596                       

(X_U3.90)   40.6050                   (X_U3.91)   40.0000                       

(X_U3.92)  -40.0000                   (X_U3.99)   40.5050                       

(X_U4.10)    4.4031                   (X_U4.11)   78.1170                       

(X_U4.12)   78.1190                   (X_U4.13)    4.4147                       

(X_U4.14)    4.4143                   (X_U4.53)   77.1510                       

(X_U4.54)    3.8596                   (X_U4.90) 66.73E-06                       

(X_U4.91)   40.0000                   (X_U4.92)  -40.0000                       

(X_U4.99)   40.5050                   (X_U5.10)    3.9595                       

(X_U5.11)   78.1170                   (X_U5.12)   78.1190                       

(X_U5.13)    3.9711                   (X_U5.14)    3.9706                       

(X_U5.53)   77.1510                   (X_U5.54)    3.8596                       

(X_U5.90)     .5941                   (X_U5.91)   40.0000                       

(X_U5.92)  -40.0000                   (X_U5.99)   40.5050                       

(X_U6.10)    2.4614                   (X_U6.11)   78.1140                       

(X_U6.12)   78.1230                   (X_U6.13)    2.4744                       

(X_U6.14)    2.4710                   (X_U6.53)   77.1510                       

(X_U6.54)    3.8596                   (X_U6.90)  -13.6070                       

(X_U6.91)   40.0000                   (X_U6.92)  -40.0000                       

(X_U6.99)   40.5050                   




    VOLTAGE SOURCE CURRENTS
    NAME         CURRENT

    V_VCC        3.821E-02
    V_-VCC       1.337E-03
    X_U1.vb     -1.228E-02
    X_U1.vc     -2.945E-02
    X_U1.ve      2.431E-11
    X_U1.vlim    4.080E-02
    X_U1.vlp     1.303E-02
    X_U1.vln    -8.080E-11
    X_U3.vb     -1.243E-05
    X_U3.vc     -1.663E-02
    X_U3.ve      7.356E-11
    X_U3.vlim    4.060E-02
    X_U3.vlp     1.149E-05
    X_U3.vln    -8.061E-11
    X_U4.vb      3.346E-08
    X_U4.vc      7.215E-11
    X_U4.ve      6.169E-13
    X_U4.vlim    6.673E-08
    X_U4.vlp    -4.000E-11
    X_U4.vln    -4.000E-11
    X_U5.vb      3.379E-08
    X_U5.vc      7.259E-11
    X_U5.ve      1.732E-13
    X_U5.vlim    5.941E-04
    X_U5.vlp    -3.941E-11
    X_U5.vln    -4.060E-11
    X_U6.vb      1.606E-06
    X_U6.vc      7.408E-11
    X_U6.ve     -1.664E-02
    X_U6.vlim   -1.361E-02
    X_U6.vlp    -5.361E-11
    X_U6.vln    -2.640E-11

    TOTAL POWER DISSIPATION  -9.01E-01  WATTS


**** 05/20/23 21:44:11 **** PSpice 22.1.0 (6 October 2022) **** ID# 0 ********

 ** Profile: "SCHEMATIC1-test"  [ E:\Tehnici CAD\proiect\proiectcad_sabauradubogdan-pspicefiles\schematic1\test.sim ] 


 ****     INITIAL TRANSIENT SOLUTION       TEMPERATURE =   27.000 DEG C

 ****     CURRENT STEP                     PARAM R =   32.0000E+03

                      MONTE CARLO PASS 5

******************************************************************************



 NODE   VOLTAGE     NODE   VOLTAGE     NODE   VOLTAGE     NODE   VOLTAGE


(   V+)   78.1490  (   V-)    2.8678  (  OUT)   12.0000  (  VCC)   12.0000      

( -VCC)  -12.0000  (N00365)    4.5640 (N00401)   77.9420 (N00482) 29.53E-06     

(N00763)    4.5625 (N01182)   11.8080 (N01288)    4.9824 (N01426)    4.9809     

(N03994)   11.2450 (N04230)   11.8590 (N04234)   11.8560 (N05088)     .4458     

(N09209)    3.0746 (N09213)    3.9658 (N09549)    3.0633 (N13651)   11.8080     

(X_U1.6)-1228.2000 (X_U1.7)   13.8480 (X_U1.8)   13.8480 (X_U1.9)    0.0000     

(X_U3.6)   -1.2433 (X_U3.7)   79.9720 (X_U3.8)   79.9720 (X_U3.9)    0.0000     

(X_U4.6)     .0033 (X_U4.7)    4.9824 (X_U4.8)    4.9824 (X_U4.9)    0.0000     

(X_U5.6)     .0034 (X_U5.7)    4.5940 (X_U5.8)    4.5940 (X_U5.9)    0.0000     

(X_U6.6)     .1606 (X_U6.7)    2.3971 (X_U6.8)    2.3971 (X_U6.9)    0.0000     

(X_U1.10)   77.1180                   (X_U1.11)   77.1570                       

(X_U1.12)   12.0000                   (X_U1.13)   77.1570                       

(X_U1.14)   77.1180                   (X_U1.53)   11.0000                       

(X_U1.54)  -11.0000                   (X_U1.90)   40.8000                       

(X_U1.91)   40.0000                   (X_U1.92)  -40.0000                       

(X_U1.99)    0.0000                   (X_U3.10)    3.3366                       

(X_U3.11)   78.1490                   (X_U3.12)   78.0840                       

(X_U3.13)    3.3366                   (X_U3.14)    3.3593                       

(X_U3.53)   77.1490                   (X_U3.54)    3.8678                       

(X_U3.90)   40.6050                   (X_U3.91)   40.0000                       

(X_U3.92)  -40.0000                   (X_U3.99)   40.5080                       

(X_U4.10)    4.3815                   (X_U4.11)   78.1150                       

(X_U4.12)   78.1170                   (X_U4.13)    4.3932                       

(X_U4.14)    4.3927                   (X_U4.53)   77.1490                       

(X_U4.54)    3.8678                   (X_U4.90) 66.72E-06                       

(X_U4.91)   40.0000                   (X_U4.92)  -40.0000                       

(X_U4.99)   40.5080                   (X_U5.10)    3.9632                       

(X_U5.11)   78.1160                   (X_U5.12)   78.1170                       

(X_U5.13)    3.9748                   (X_U5.14)    3.9743                       

(X_U5.53)   77.1490                   (X_U5.54)    3.8678                       

(X_U5.90)     .6010                   (X_U5.91)   40.0000                       

(X_U5.92)  -40.0000                   (X_U5.99)   40.5080                       

(X_U6.10)    2.4696                   (X_U6.11)   78.1120                       

(X_U6.12)   78.1210                   (X_U6.13)    2.4825                       

(X_U6.14)    2.4791                   (X_U6.53)   77.1490                       

(X_U6.54)    3.8678                   (X_U6.90)  -13.5510                       

(X_U6.91)   40.0000                   (X_U6.92)  -40.0000                       

(X_U6.99)   40.5080                   




    VOLTAGE SOURCE CURRENTS
    NAME         CURRENT

    V_VCC        3.827E-02
    V_-VCC       1.337E-03
    X_U1.vb     -1.228E-02
    X_U1.vc     -2.952E-02
    X_U1.ve      2.431E-11
    X_U1.vlim    4.080E-02
    X_U1.vlp     1.303E-02
    X_U1.vln    -8.080E-11
    X_U3.vb     -1.243E-05
    X_U3.vc     -1.663E-02
    X_U3.ve      7.355E-11
    X_U3.vlim    4.060E-02
    X_U3.vlp     1.148E-05
    X_U3.vln    -8.061E-11
    X_U4.vb      3.348E-08
    X_U4.vc      7.217E-11
    X_U4.ve      5.861E-13
    X_U4.vlim    6.672E-08
    X_U4.vlp    -4.000E-11
    X_U4.vln    -4.000E-11
    X_U5.vb      3.379E-08
    X_U5.vc      7.259E-11
    X_U5.ve      1.677E-13
    X_U5.vlim    6.010E-04
    X_U5.vlp    -3.940E-11
    X_U5.vln    -4.061E-11
    X_U6.vb      1.606E-06
    X_U6.vc      7.407E-11
    X_U6.ve     -1.664E-02
    X_U6.vlim   -1.355E-02
    X_U6.vlp    -5.355E-11
    X_U6.vln    -2.645E-11

    TOTAL POWER DISSIPATION  -9.02E-01  WATTS


**** 05/20/23 21:44:11 **** PSpice 22.1.0 (6 October 2022) **** ID# 0 ********

 ** Profile: "SCHEMATIC1-test"  [ E:\Tehnici CAD\proiect\proiectcad_sabauradubogdan-pspicefiles\schematic1\test.sim ] 


 ****     SORTED DEVIATIONS OF V(OUT)      TEMPERATURE =   27.000 DEG C

 ****     CURRENT STEP                     PARAM R =   32.0000E+03

                      MONTE CARLO SUMMARY

******************************************************************************





Mean Deviation =    0     
Sigma          =    0     

 RUN                    MAX DEVIATION FROM NOMINAL

Pass    2               0       unchanged  at T =    0     

Pass    3               0       unchanged  at T =    0     

Pass    4               0       unchanged  at T =    0     

Pass    5               0       unchanged  at T =    0     



          JOB CONCLUDED

**** 05/20/23 21:44:11 **** PSpice 22.1.0 (6 October 2022) **** ID# 0 ********

 ** Profile: "SCHEMATIC1-test"  [ E:\Tehnici CAD\proiect\proiectcad_sabauradubogdan-pspicefiles\schematic1\test.sim ] 


 ****     JOB STATISTICS SUMMARY

 ****     CURRENT STEP                     PARAM R =   32.0000E+03


******************************************************************************



  License check-out time            =       10.08
  Total job time (using Solver 1)   =        1.58
